
*** ChampSim Multicore Out-of-Order Simulator ***

Warmup Instructions: 25000000
Simulation Instructions: 25000000
Number of CPUs: 1
LLC sets: 2048
LLC ways: 16
Off-chip DRAM Size: 4096 MB Channels: 1 Width: 64-bit Data Rate: 6400 MT/s
CPU 0 runs ./traces/trace1.champsimtrace.xz
.xz
CPU 0 Bimodal branch predictor
BTB has LRU replacement policy
ITLB has LRU replacement policy
DTLB has LRU replacement policy
CPU 0 STLB arbitrary stride prefetcher
STLB has LRU replacement policy
L1I has LRU replacement policy
L1D has LRU replacement policy
L2C has LRU replacement policy
LLC has LRU replacement policy
Heartbeat CPU 0 instructions: 10000003 cycles: 2822371 heartbeat IPC: 3.54312 cumulative IPC: 3.54312 (Simulation time: 0 hr 0 min 16 sec) 
Heartbeat CPU 0 instructions: 20000003 cycles: 5635999 heartbeat IPC: 3.55413 cumulative IPC: 3.54862 (Simulation time: 0 hr 0 min 32 sec) 

Warmup complete CPU 0 instructions: 25000004 cycles: 7047403 (Simulation time: 0 hr 0 min 40 sec) 

Heartbeat CPU 0 instructions: 30000002 cycles: 23905237 heartbeat IPC: 0.547368 cumulative IPC: 0.296598 (Simulation time: 0 hr 1 min 1 sec) 
Heartbeat CPU 0 instructions: 40000001 cycles: 60027694 heartbeat IPC: 0.276836 cumulative IPC: 0.283124 (Simulation time: 0 hr 1 min 44 sec) 
Heartbeat CPU 0 instructions: 50000000 cycles: 94961850 heartbeat IPC: 0.286253 cumulative IPC: 0.284367 (Simulation time: 0 hr 2 min 27 sec) 
Finished CPU 0 instructions: 25000000 cycles: 87914449 cumulative IPC: 0.284367 (Simulation time: 0 hr 2 min 27 sec) 

ChampSim completed all CPUs

Region of Interest Statistics

CPU 0 cumulative IPC: 0.284367 instructions: 25000000 cycles: 87914449
ITLB TOTAL     ACCESS:    4445852  HIT:    4445852  MISS:          0  HIT %:        100  MISS %:          0   MPKI: 0
ITLB LOAD TRANSLATION ACCESS:    4445852  HIT:    4445852  MISS:          0  HIT %:        100  MISS %:          0   MPKI: 0
ITLB PREFETCH  REQUESTED:          0  ISSUED:          0  USEFUL:          0  USELESS:          0
ITLB USEFUL LOAD PREFETCHES:          0 PREFETCH ISSUED TO LOWER LEVEL:          0  ACCURACY: -nan
ITLB TIMELY PREFETCHES:          0 LATE PREFETCHES: 0 DROPPED PREFETCHES: 0
ITLB PREFETCHES SAME FILL-ORIGIN LEVEL: 0 DIFFERENT FILL-ORIGIN LEVEL: 0
ITLB AVERAGE MISS LATENCY: -nan cycles
ITLB RQ	ACCESS:    4797402	FORWARD:          0	MERGED:     351550	TO_CACHE:    4445852

DTLB TOTAL     ACCESS:    3718220  HIT:    3055331  MISS:     662889  HIT %:    82.1719  MISS %:    17.8281   MPKI: 26.5156
DTLB LOAD TRANSLATION ACCESS:    3718220  HIT:    3055331  MISS:     662889  HIT %:    82.1719  MISS %:    17.8281   MPKI: 26.5156
DTLB PREFETCH  REQUESTED:          0  ISSUED:          0  USEFUL:          0  USELESS:          0
DTLB USEFUL LOAD PREFETCHES:          0 PREFETCH ISSUED TO LOWER LEVEL:          0  ACCURACY: -nan
DTLB TIMELY PREFETCHES:          0 LATE PREFETCHES: 0 DROPPED PREFETCHES: 0
DTLB PREFETCHES SAME FILL-ORIGIN LEVEL: 0 DIFFERENT FILL-ORIGIN LEVEL: 0
DTLB AVERAGE MISS LATENCY: 51.1705 cycles
DTLB RQ	ACCESS:    4317957	FORWARD:          0	MERGED:     592303	TO_CACHE:    3725654

STLB TOTAL     ACCESS:     755989  HIT:     126869  MISS:     629120  HIT %:    16.7819  MISS %:    83.2181   MPKI: 25.1648
STLB LOAD TRANSLATION ACCESS:     662889  HIT:     126099  MISS:     536790  HIT %:    19.0226  MISS %:    80.9774   MPKI: 21.4716
STLB PREFETCH TRANSLATION ACCESS:      93100  HIT:        770  MISS:      92330  HIT %:   0.827068  MISS %:    99.1729   MPKI: 3.6932
STLB PREFETCH  REQUESTED:     132216  ISSUED:     132216  USEFUL:      25693  USELESS:      66693
STLB USEFUL LOAD PREFETCHES:      25693 PREFETCH ISSUED TO LOWER LEVEL:     121243  ACCURACY: 21.1913
STLB TIMELY PREFETCHES:      25693 LATE PREFETCHES: 9219 DROPPED PREFETCHES: 19694
STLB PREFETCHES SAME FILL-ORIGIN LEVEL: 121243 DIFFERENT FILL-ORIGIN LEVEL: 0
STLB AVERAGE MISS LATENCY: 57.5352 cycles
STLB RQ	ACCESS:     662892	FORWARD:          0	MERGED:          0	TO_CACHE:     662892
STLB PQ	ACCESS:     132216	FORWARD:          0	MERGED:          0	TO_CACHE:     132216

STLB Hit, L1D data hit: 0
STLB Hit, L2C data hit: 0
STLB Hit, LLC data hit: 0
STLB Hit, LLC data miss: 0
STLB STLB hints to L2: 0
L1D TOTAL     ACCESS:    4296587  HIT:    3091341  MISS:    1205246  HIT %:    71.9488  MISS %:    28.0512   MPKI: 48.2098
L1D LOAD      ACCESS:    3187922  HIT:    2052040  MISS:    1135882  HIT %:    64.3692  MISS %:    35.6308   MPKI: 45.4353
L1D RFO       ACCESS:    1108665  HIT:    1039301  MISS:      69364  HIT %:    93.7435  MISS %:    6.25653   MPKI: 2.77456
L1D PREFETCH  REQUESTED:          0  ISSUED:          0  USEFUL:          0  USELESS:          0
L1D USEFUL LOAD PREFETCHES:          0 PREFETCH ISSUED TO LOWER LEVEL:          0  ACCURACY: -nan
L1D TIMELY PREFETCHES:          0 LATE PREFETCHES: 0 DROPPED PREFETCHES: 0
L1D PREFETCHES SAME FILL-ORIGIN LEVEL: 0 DIFFERENT FILL-ORIGIN LEVEL: 0
L1D AVERAGE MISS LATENCY: 124.757 cycles
L1D RQ	ACCESS:    6159824	FORWARD:          0	MERGED:    2887719	TO_CACHE:    3209290
L1D WQ	ACCESS:    1108674	FORWARD:      62815	MERGED:          7	TO_CACHE:    1108667

L1D UNIQUE REGIONS ACCESSED: 0
L1D REGIONS CONFLICTS: 0
L1D Cross Page Prefetch Requests: 0
L1D Same Page Prefetch Requests: 0
L1D ROI Sum of L1D PQ occupancy: 0
L1D PREFETCHES PUSHED FROM L2C: 0
L1I TOTAL     ACCESS:    4797400  HIT:    4797400  MISS:          0  HIT %:        100  MISS %:          0   MPKI: 0
L1I LOAD      ACCESS:    4797400  HIT:    4797400  MISS:          0  HIT %:        100  MISS %:          0   MPKI: 0
L1I PREFETCH  REQUESTED:          0  ISSUED:          0  USEFUL:          0  USELESS:          0
L1I USEFUL LOAD PREFETCHES:          0 PREFETCH ISSUED TO LOWER LEVEL:          0  ACCURACY: -nan
L1I TIMELY PREFETCHES:          0 LATE PREFETCHES: 0 DROPPED PREFETCHES: 0
L1I PREFETCHES SAME FILL-ORIGIN LEVEL: 0 DIFFERENT FILL-ORIGIN LEVEL: 0
L1I AVERAGE MISS LATENCY: -nan cycles
L1I RQ	ACCESS:    7112371	FORWARD:          0	MERGED:    2314969	TO_CACHE:    4797402

BTB TOTAL     ACCESS:    3283965  HIT:    3283957  MISS:          8  HIT %:    99.9998  MISS %: 0.000243608   MPKI: 0.00032
BTB BRANCH_DIRECT_JUMP	ACCESS:     568311  HIT:     568309  MISS:          2
BTB BRANCH_INDIRECT	ACCESS:          0  HIT:          0  MISS:          0
BTB BRANCH_CONDITIONAL	ACCESS:    1606986  HIT:    1606982  MISS:          4
BTB BRANCH_DIRECT_CALL	ACCESS:     554334  HIT:     554333  MISS:          1
BTB BRANCH_INDIRECT_CALL	ACCESS:          0  HIT:          0  MISS:          0
BTB BRANCH_RETURN	ACCESS:     554334  HIT:     554333  MISS:          1
BTB BRANCH_OTHER ACCESS:          0  HIT:          0  MISS:          0

L2C TOTAL     ACCESS:    2487921  HIT:    1482971  MISS:    1004950  HIT %:    59.6068  MISS %:    40.3932   MPKI: 40.198
L2C LOAD      ACCESS:    1135882  HIT:     416029  MISS:     719853  HIT %:    36.6261  MISS %:    63.3739   MPKI: 28.7941
L2C DATA LOAD MPKI: 28.7941
L2C INSTRUCTION LOAD MPKI: 0
L2C RFO       ACCESS:      69364  HIT:      41435  MISS:      27929  HIT %:    59.7356  MISS %:    40.2644   MPKI: 1.11716
L2C WRITEBACK ACCESS:     554350  HIT:     554350  MISS:          0  HIT %:        100  MISS %:          0   MPKI: 0
L2C LOAD TRANSLATION ACCESS:     593628  HIT:     375178  MISS:     218450  HIT %:    63.2009  MISS %:    36.7991   MPKI: 8.738
L2C PREFETCH TRANSLATION ACCESS:     134697  HIT:      95979  MISS:      38718  HIT %:    71.2555  MISS %:    28.7445   MPKI: 1.54872
L2C PREFETCH  REQUESTED:          0  ISSUED:          0  USEFUL:      23922  USELESS:      14905
L2C USEFUL LOAD PREFETCHES:      23922 PREFETCH ISSUED TO LOWER LEVEL:          0  ACCURACY: inf
L2C TIMELY PREFETCHES:      23922 LATE PREFETCHES: 0 DROPPED PREFETCHES: 0
L2C PREFETCHES SAME FILL-ORIGIN LEVEL: 0 DIFFERENT FILL-ORIGIN LEVEL: 0
L2C AVERAGE MISS LATENCY: 140.679 cycles
L2C RQ	ACCESS:    1933571	FORWARD:          0	MERGED:          0	TO_CACHE:    1933571
L2C WQ	ACCESS:     554350	FORWARD:          0	MERGED:          0	TO_CACHE:     554350

L2C Instructions Evicting Data 0
L2C Translations Evicting Data 153490
L2C Data Evicting Data 594187
L2C Instructions Evicting Instructions 0
L2C Translations Evicting Instructions 0
L2C Data Evicting Instructions 0
L2C Instructions Evicting Translations 0
L2C Translations Evicting Translations 103678
L2C Data Evicting Translations 153595
L2C Dense regions hint from L2: 0
PSCL5 TOTAL     ACCESS:     648815  HIT:     648815  MISS:          0  HIT %:        100  MISS %:          0   MPKI: 0
PSCL5 LOAD TRANSLATION ACCESS:     527572  HIT:     527572  MISS:          0  HIT %:        100  MISS %:          0   MPKI: 0
PSCL5 PREFETCH TRANSLATION ACCESS:     121243  HIT:     121243  MISS:          0  HIT %:        100  MISS %:          0   MPKI: 0
PSCL5 PREFETCH  REQUESTED:          0  ISSUED:          0  USEFUL:          0  USELESS:          0
PSCL5 USEFUL LOAD PREFETCHES:          0 PREFETCH ISSUED TO LOWER LEVEL:          0  ACCURACY: -nan
PSCL5 TIMELY PREFETCHES:          0 LATE PREFETCHES: 0 DROPPED PREFETCHES: 0
PSCL5 PREFETCHES SAME FILL-ORIGIN LEVEL: 0 DIFFERENT FILL-ORIGIN LEVEL: 0

PSCL4 TOTAL     ACCESS:     648815  HIT:     648815  MISS:          0  HIT %:        100  MISS %:          0   MPKI: 0
PSCL4 LOAD TRANSLATION ACCESS:     527572  HIT:     527572  MISS:          0  HIT %:        100  MISS %:          0   MPKI: 0
PSCL4 PREFETCH TRANSLATION ACCESS:     121243  HIT:     121243  MISS:          0  HIT %:        100  MISS %:          0   MPKI: 0
PSCL4 PREFETCH  REQUESTED:          0  ISSUED:          0  USEFUL:          0  USELESS:          0
PSCL4 USEFUL LOAD PREFETCHES:          0 PREFETCH ISSUED TO LOWER LEVEL:          0  ACCURACY: -nan
PSCL4 TIMELY PREFETCHES:          0 LATE PREFETCHES: 0 DROPPED PREFETCHES: 0
PSCL4 PREFETCHES SAME FILL-ORIGIN LEVEL: 0 DIFFERENT FILL-ORIGIN LEVEL: 0

PSCL3 TOTAL     ACCESS:     648815  HIT:     648815  MISS:          0  HIT %:        100  MISS %:          0   MPKI: 0
PSCL3 LOAD TRANSLATION ACCESS:     527572  HIT:     527572  MISS:          0  HIT %:        100  MISS %:          0   MPKI: 0
PSCL3 PREFETCH TRANSLATION ACCESS:     121243  HIT:     121243  MISS:          0  HIT %:        100  MISS %:          0   MPKI: 0
PSCL3 PREFETCH  REQUESTED:          0  ISSUED:          0  USEFUL:          0  USELESS:          0
PSCL3 USEFUL LOAD PREFETCHES:          0 PREFETCH ISSUED TO LOWER LEVEL:          0  ACCURACY: -nan
PSCL3 TIMELY PREFETCHES:          0 LATE PREFETCHES: 0 DROPPED PREFETCHES: 0
PSCL3 PREFETCHES SAME FILL-ORIGIN LEVEL: 0 DIFFERENT FILL-ORIGIN LEVEL: 0

PSCL2 TOTAL     ACCESS:     646206  HIT:     569183  MISS:      77023  HIT %:    88.0807  MISS %:    11.9193   MPKI: 3.08092
PSCL2 LOAD TRANSLATION ACCESS:     538538  HIT:     461515  MISS:      77023  HIT %:    85.6978  MISS %:    14.3022   MPKI: 3.08092
PSCL2 PREFETCH TRANSLATION ACCESS:     107668  HIT:     107668  MISS:          0  HIT %:        100  MISS %:          0   MPKI: 0
PSCL2 PREFETCH  REQUESTED:          0  ISSUED:          0  USEFUL:          0  USELESS:          0
PSCL2 USEFUL LOAD PREFETCHES:          0 PREFETCH ISSUED TO LOWER LEVEL:          0  ACCURACY: -nan
PSCL2 TIMELY PREFETCHES:          0 LATE PREFETCHES: 0 DROPPED PREFETCHES: 0
PSCL2 PREFETCHES SAME FILL-ORIGIN LEVEL: 0 DIFFERENT FILL-ORIGIN LEVEL: 0

LLC TOTAL     ACCESS:    1559697  HIT:     908315  MISS:     651382  HIT %:    58.2366  MISS %:    41.7634   MPKI: 26.0553
LLC LOAD      ACCESS:     719853  HIT:      78365  MISS:     641488  HIT %:    10.8863  MISS %:    89.1137   MPKI: 25.6595
LLC RFO       ACCESS:      27929  HIT:      27925  MISS:          4  HIT %:    99.9857  MISS %:   0.014322   MPKI: 0.00016
LLC WRITEBACK ACCESS:     554747  HIT:     554747  MISS:          0  HIT %:        100  MISS %:          0   MPKI: 0
LLC LOAD TRANSLATION ACCESS:     218450  HIT:     211575  MISS:       6875  HIT %:    96.8528  MISS %:    3.14717   MPKI: 0.275
LLC PREFETCH TRANSLATION ACCESS:      38718  HIT:      35703  MISS:       3015  HIT %:    92.2129  MISS %:    7.78708   MPKI: 0.1206
LLC PREFETCH  REQUESTED:          0  ISSUED:          0  USEFUL:       1733  USELESS:       1327
LLC USEFUL LOAD PREFETCHES:       1733 PREFETCH ISSUED TO LOWER LEVEL:          0  ACCURACY: inf
LLC TIMELY PREFETCHES:       1733 LATE PREFETCHES: 0 DROPPED PREFETCHES: 0
LLC PREFETCHES SAME FILL-ORIGIN LEVEL: 0 DIFFERENT FILL-ORIGIN LEVEL: 0
LLC AVERAGE MISS LATENCY: 170.563 cycles
LLC RQ	ACCESS:    1004950	FORWARD:          0	MERGED:          0	TO_CACHE:    1004950
LLC WQ	ACCESS:     554747	FORWARD:          0	MERGED:          0	TO_CACHE:     554747

LLC Dense regions hint to LLC: 0

RAW hits: 490708
Loads Generated: 6650535
Loads sent to L1D: 6159824
Stores Generated: 1108672
Stores sent to L1D: 1108674
Major fault: 0 Minor fault: 23115
Allocated PAGES: 23115
CPU 0 STLB arbitrary stride prefetcher final stats
Degree: 1

DRAM Statistics
 CHANNEL 0
 RQ ROW_BUFFER_HIT:        790  ROW_BUFFER_MISS:     650591
 DBUS_CONGESTED:          2
 WQ ROW_BUFFER_HIT:     217972  ROW_BUFFER_MISS:     336332  FULL:          0

 AVG_CONGESTED_CYCLE: 4
 All warmup complete: 2
Channel 0 Bank busy for read cycles: 0
Channel 0 Bank busy for write cycles: 0
Channel 0
Rank 0
0banks busy for read cycles: 2529746
0banks busy for write cycles: 57368
1banks busy for read cycles: 20971748
1banks busy for write cycles: 4585423
2banks busy for read cycles: 14301022
2banks busy for write cycles: 6623257
3banks busy for read cycles: 11244684
3banks busy for write cycles: 9814673
4banks busy for read cycles: 3532793
4banks busy for write cycles: 8380033
5banks busy for read cycles: 37767
5banks busy for write cycles: 3300716
6banks busy for read cycles: 93
6banks busy for write cycles: 1342286
7banks busy for read cycles: 0
7banks busy for write cycles: 658835
8banks busy for read cycles: 0
8banks busy for write cycles: 534006

CPU 0 Branch Prediction Accuracy: 99.9685% MPKI: 0.04912 Average ROB Occupancy at Mispredict: 156.336
Branch types
NOT_BRANCH: 21105652 84.4226%
BRANCH_DIRECT_JUMP: 568311 2.27324%
BRANCH_INDIRECT: 0 0%
BRANCH_CONDITIONAL: 2217337 8.86935%
BRANCH_DIRECT_CALL: 554334 2.21734%
BRANCH_INDIRECT_CALL: 0 0%
BRANCH_RETURN: 554334 2.21734%
BRANCH_OTHER: 0 0%

DRAM PAGES: 1048576
Allocated PAGES: 23115
