
*** ChampSim Multicore Out-of-Order Simulator ***

Warmup Instructions: 25000000
Simulation Instructions: 25000000
Number of CPUs: 1
LLC sets: 2048
LLC ways: 16
Off-chip DRAM Size: 4096 MB Channels: 1 Width: 64-bit Data Rate: 6400 MT/s
CPU 0 runs ./traces/trace1.champsimtrace.xz
.xz
CPU 0 Bimodal branch predictor
BTB has LRU replacement policy
ITLB has LRU replacement policy
DTLB has LRU replacement policy
CPU 0 STLB arbitrary stride prefetcher
STLB has LRU replacement policy
L1I has LRU replacement policy
L1D has LRU replacement policy
L2C has LRU replacement policy
LLC has LRU replacement policy
Heartbeat CPU 0 instructions: 10000003 cycles: 2824786 heartbeat IPC: 3.54009 cumulative IPC: 3.54009 (Simulation time: 0 hr 0 min 17 sec) 
Heartbeat CPU 0 instructions: 20000003 cycles: 5636019 heartbeat IPC: 3.55716 cumulative IPC: 3.5486 (Simulation time: 0 hr 0 min 34 sec) 

Warmup complete CPU 0 instructions: 25000004 cycles: 7046817 (Simulation time: 0 hr 0 min 43 sec) 

Heartbeat CPU 0 instructions: 30000002 cycles: 23350493 heartbeat IPC: 0.56451 cumulative IPC: 0.306679 (Simulation time: 0 hr 1 min 3 sec) 
Heartbeat CPU 0 instructions: 40000001 cycles: 58096132 heartbeat IPC: 0.287806 cumulative IPC: 0.293833 (Simulation time: 0 hr 1 min 46 sec) 
Heartbeat CPU 0 instructions: 50000003 cycles: 91730536 heartbeat IPC: 0.297315 cumulative IPC: 0.295216 (Simulation time: 0 hr 2 min 29 sec) 
Finished CPU 0 instructions: 25000003 cycles: 84683720 cumulative IPC: 0.295216 (Simulation time: 0 hr 2 min 29 sec) 

ChampSim completed all CPUs

Region of Interest Statistics

CPU 0 cumulative IPC: 0.295216 instructions: 25000003 cycles: 84683720
ITLB TOTAL     ACCESS:    4430797  HIT:    4430797  MISS:          0  HIT %:        100  MISS %:          0   MPKI: 0
ITLB LOAD TRANSLATION ACCESS:    4430797  HIT:    4430797  MISS:          0  HIT %:        100  MISS %:          0   MPKI: 0
ITLB PREFETCH  REQUESTED:          0  ISSUED:          0  USEFUL:          0  USELESS:          0
ITLB USEFUL LOAD PREFETCHES:          0 PREFETCH ISSUED TO LOWER LEVEL:          0  ACCURACY: -nan
ITLB TIMELY PREFETCHES:          0 LATE PREFETCHES: 0 DROPPED PREFETCHES: 0
ITLB PREFETCHES SAME FILL-ORIGIN LEVEL: 0 DIFFERENT FILL-ORIGIN LEVEL: 0
ITLB AVERAGE MISS LATENCY: -nan cycles
ITLB RQ	ACCESS:    4785366	FORWARD:          0	MERGED:     354570	TO_CACHE:    4430796

DTLB TOTAL     ACCESS:    3701192  HIT:    3038237  MISS:     662955  HIT %:    82.0881  MISS %:    17.9119   MPKI: 26.5182
DTLB LOAD TRANSLATION ACCESS:    3701192  HIT:    3038237  MISS:     662955  HIT %:    82.0881  MISS %:    17.9119   MPKI: 26.5182
DTLB PREFETCH  REQUESTED:          0  ISSUED:          0  USEFUL:          0  USELESS:          0
DTLB USEFUL LOAD PREFETCHES:          0 PREFETCH ISSUED TO LOWER LEVEL:          0  ACCURACY: -nan
DTLB TIMELY PREFETCHES:          0 LATE PREFETCHES: 0 DROPPED PREFETCHES: 0
DTLB PREFETCHES SAME FILL-ORIGIN LEVEL: 0 DIFFERENT FILL-ORIGIN LEVEL: 0
DTLB AVERAGE MISS LATENCY: 42.8956 cycles
DTLB RQ	ACCESS:    4303330	FORWARD:          0	MERGED:     592071	TO_CACHE:    3711259

STLB TOTAL     ACCESS:    1145570  HIT:     144388  MISS:    1001182  HIT %:     12.604  MISS %:     87.396   MPKI: 40.0473
STLB LOAD TRANSLATION ACCESS:     662955  HIT:     140335  MISS:     522620  HIT %:    21.1681  MISS %:    78.8319   MPKI: 20.9048
STLB PREFETCH TRANSLATION ACCESS:     482615  HIT:       4053  MISS:     478562  HIT %:     0.8398  MISS %:    99.1602   MPKI: 19.1425
STLB PREFETCH  REQUESTED:     782540  ISSUED:     748958  USEFUL:      46521  USELESS:     432169
STLB USEFUL LOAD PREFETCHES:      46521 PREFETCH ISSUED TO LOWER LEVEL:     640482  ACCURACY: 7.26344
STLB TIMELY PREFETCHES:      46521 LATE PREFETCHES: 14610 DROPPED PREFETCHES: 147310
STLB PREFETCHES SAME FILL-ORIGIN LEVEL: 640482 DIFFERENT FILL-ORIGIN LEVEL: 0
STLB AVERAGE MISS LATENCY: 91.4486 cycles
STLB RQ	ACCESS:     662956	FORWARD:          0	MERGED:          0	TO_CACHE:     662956
STLB PQ	ACCESS:     748958	FORWARD:          0	MERGED:      49743	TO_CACHE:     699215

STLB Hit, L1D data hit: 0
STLB Hit, L2C data hit: 0
STLB Hit, LLC data hit: 0
STLB Hit, LLC data miss: 0
STLB STLB hints to L2: 0
L1D TOTAL     ACCESS:    4286848  HIT:    3081537  MISS:    1205311  HIT %:    71.8835  MISS %:    28.1165   MPKI: 48.2124
L1D LOAD      ACCESS:    3178184  HIT:    2042237  MISS:    1135947  HIT %:     64.258  MISS %:     35.742   MPKI: 45.4379
L1D RFO       ACCESS:    1108664  HIT:    1039300  MISS:      69364  HIT %:    93.7435  MISS %:    6.25654   MPKI: 2.77456
L1D PREFETCH  REQUESTED:          0  ISSUED:          0  USEFUL:          0  USELESS:          0
L1D USEFUL LOAD PREFETCHES:          0 PREFETCH ISSUED TO LOWER LEVEL:          0  ACCURACY: -nan
L1D TIMELY PREFETCHES:          0 LATE PREFETCHES: 0 DROPPED PREFETCHES: 0
L1D PREFETCHES SAME FILL-ORIGIN LEVEL: 0 DIFFERENT FILL-ORIGIN LEVEL: 0
L1D AVERAGE MISS LATENCY: 125.229 cycles
L1D RQ	ACCESS:    6165408	FORWARD:          0	MERGED:    2902345	TO_CACHE:    3194664
L1D WQ	ACCESS:    1108674	FORWARD:      68399	MERGED:          8	TO_CACHE:    1108666

L1D UNIQUE REGIONS ACCESSED: 0
L1D REGIONS CONFLICTS: 0
L1D Cross Page Prefetch Requests: 0
L1D Same Page Prefetch Requests: 0
L1D ROI Sum of L1D PQ occupancy: 0
L1D PREFETCHES PUSHED FROM L2C: 0
L1I TOTAL     ACCESS:    4785366  HIT:    4785366  MISS:          0  HIT %:        100  MISS %:          0   MPKI: 0
L1I LOAD      ACCESS:    4785366  HIT:    4785366  MISS:          0  HIT %:        100  MISS %:          0   MPKI: 0
L1I PREFETCH  REQUESTED:          0  ISSUED:          0  USEFUL:          0  USELESS:          0
L1I USEFUL LOAD PREFETCHES:          0 PREFETCH ISSUED TO LOWER LEVEL:          0  ACCURACY: -nan
L1I TIMELY PREFETCHES:          0 LATE PREFETCHES: 0 DROPPED PREFETCHES: 0
L1I PREFETCHES SAME FILL-ORIGIN LEVEL: 0 DIFFERENT FILL-ORIGIN LEVEL: 0
L1I AVERAGE MISS LATENCY: -nan cycles
L1I RQ	ACCESS:    7059589	FORWARD:          0	MERGED:    2274223	TO_CACHE:    4785366

BTB TOTAL     ACCESS:    3283963  HIT:    3283955  MISS:          8  HIT %:    99.9998  MISS %: 0.000243608   MPKI: 0.00032
BTB BRANCH_DIRECT_JUMP	ACCESS:     568310  HIT:     568308  MISS:          2
BTB BRANCH_INDIRECT	ACCESS:          0  HIT:          0  MISS:          0
BTB BRANCH_CONDITIONAL	ACCESS:    1606985  HIT:    1606981  MISS:          4
BTB BRANCH_DIRECT_CALL	ACCESS:     554334  HIT:     554333  MISS:          1
BTB BRANCH_INDIRECT_CALL	ACCESS:          0  HIT:          0  MISS:          0
BTB BRANCH_RETURN	ACCESS:     554334  HIT:     554333  MISS:          1
BTB BRANCH_OTHER ACCESS:          0  HIT:          0  MISS:          0

L2C TOTAL     ACCESS:    3029938  HIT:    1909391  MISS:    1120547  HIT %:    63.0175  MISS %:    36.9825   MPKI: 44.8219
L2C LOAD      ACCESS:    1135947  HIT:     403502  MISS:     732445  HIT %:    35.5212  MISS %:    64.4788   MPKI: 29.2978
L2C DATA LOAD MPKI: 29.2978
L2C INSTRUCTION LOAD MPKI: 0
L2C RFO       ACCESS:      69364  HIT:      35691  MISS:      33673  HIT %:    51.4546  MISS %:    48.5454   MPKI: 1.34692
L2C WRITEBACK ACCESS:     554349  HIT:     554349  MISS:          0  HIT %:        100  MISS %:          0   MPKI: 0
L2C LOAD TRANSLATION ACCESS:     535328  HIT:     419103  MISS:     116225  HIT %:     78.289  MISS %:     21.711   MPKI: 4.649
L2C PREFETCH TRANSLATION ACCESS:     734950  HIT:     496746  MISS:     238204  HIT %:    67.5891  MISS %:    32.4109   MPKI: 9.52816
L2C PREFETCH  REQUESTED:          0  ISSUED:          0  USEFUL:     179719  USELESS:      58604
L2C USEFUL LOAD PREFETCHES:     179719 PREFETCH ISSUED TO LOWER LEVEL:          0  ACCURACY: inf
L2C TIMELY PREFETCHES:     179719 LATE PREFETCHES: 0 DROPPED PREFETCHES: 0
L2C PREFETCHES SAME FILL-ORIGIN LEVEL: 0 DIFFERENT FILL-ORIGIN LEVEL: 0
L2C AVERAGE MISS LATENCY: 130.233 cycles
L2C RQ	ACCESS:    2475591	FORWARD:          0	MERGED:          0	TO_CACHE:    2475591
L2C WQ	ACCESS:     554349	FORWARD:          0	MERGED:          0	TO_CACHE:     554349

L2C Instructions Evicting Data 0
L2C Translations Evicting Data 211858
L2C Data Evicting Data 553917
L2C Instructions Evicting Instructions 0
L2C Translations Evicting Instructions 0
L2C Data Evicting Instructions 0
L2C Instructions Evicting Translations 0
L2C Translations Evicting Translations 142571
L2C Data Evicting Translations 212201
L2C Dense regions hint from L2: 0
PSCL5 TOTAL     ACCESS:    1148493  HIT:    1148493  MISS:          0  HIT %:        100  MISS %:          0   MPKI: 0
PSCL5 LOAD TRANSLATION ACCESS:     508011  HIT:     508011  MISS:          0  HIT %:        100  MISS %:          0   MPKI: 0
PSCL5 PREFETCH TRANSLATION ACCESS:     640482  HIT:     640482  MISS:          0  HIT %:        100  MISS %:          0   MPKI: 0
PSCL5 PREFETCH  REQUESTED:          0  ISSUED:          0  USEFUL:          0  USELESS:          0
PSCL5 USEFUL LOAD PREFETCHES:          0 PREFETCH ISSUED TO LOWER LEVEL:          0  ACCURACY: -nan
PSCL5 TIMELY PREFETCHES:          0 LATE PREFETCHES: 0 DROPPED PREFETCHES: 0
PSCL5 PREFETCHES SAME FILL-ORIGIN LEVEL: 0 DIFFERENT FILL-ORIGIN LEVEL: 0

PSCL4 TOTAL     ACCESS:    1148493  HIT:    1148493  MISS:          0  HIT %:        100  MISS %:          0   MPKI: 0
PSCL4 LOAD TRANSLATION ACCESS:     508011  HIT:     508011  MISS:          0  HIT %:        100  MISS %:          0   MPKI: 0
PSCL4 PREFETCH TRANSLATION ACCESS:     640482  HIT:     640482  MISS:          0  HIT %:        100  MISS %:          0   MPKI: 0
PSCL4 PREFETCH  REQUESTED:          0  ISSUED:          0  USEFUL:          0  USELESS:          0
PSCL4 USEFUL LOAD PREFETCHES:          0 PREFETCH ISSUED TO LOWER LEVEL:          0  ACCURACY: -nan
PSCL4 TIMELY PREFETCHES:          0 LATE PREFETCHES: 0 DROPPED PREFETCHES: 0
PSCL4 PREFETCHES SAME FILL-ORIGIN LEVEL: 0 DIFFERENT FILL-ORIGIN LEVEL: 0

PSCL3 TOTAL     ACCESS:    1148056  HIT:    1148056  MISS:          0  HIT %:        100  MISS %:          0   MPKI: 0
PSCL3 LOAD TRANSLATION ACCESS:     508011  HIT:     508011  MISS:          0  HIT %:        100  MISS %:          0   MPKI: 0
PSCL3 PREFETCH TRANSLATION ACCESS:     640045  HIT:     640045  MISS:          0  HIT %:        100  MISS %:          0   MPKI: 0
PSCL3 PREFETCH  REQUESTED:          0  ISSUED:          0  USEFUL:          0  USELESS:          0
PSCL3 USEFUL LOAD PREFETCHES:          0 PREFETCH ISSUED TO LOWER LEVEL:          0  ACCURACY: -nan
PSCL3 TIMELY PREFETCHES:          0 LATE PREFETCHES: 0 DROPPED PREFETCHES: 0
PSCL3 PREFETCHES SAME FILL-ORIGIN LEVEL: 0 DIFFERENT FILL-ORIGIN LEVEL: 0

PSCL2 TOTAL     ACCESS:    1102883  HIT:    1024305  MISS:      78578  HIT %:    92.8752  MISS %:    7.12478   MPKI: 3.14312
PSCL2 LOAD TRANSLATION ACCESS:     559272  HIT:     480694  MISS:      78578  HIT %:    85.9499  MISS %:    14.0501   MPKI: 3.14312
PSCL2 PREFETCH TRANSLATION ACCESS:     543611  HIT:     543611  MISS:          0  HIT %:        100  MISS %:          0   MPKI: 0
PSCL2 PREFETCH  REQUESTED:          0  ISSUED:          0  USEFUL:          0  USELESS:          0
PSCL2 USEFUL LOAD PREFETCHES:          0 PREFETCH ISSUED TO LOWER LEVEL:          0  ACCURACY: -nan
PSCL2 TIMELY PREFETCHES:          0 LATE PREFETCHES: 0 DROPPED PREFETCHES: 0
PSCL2 PREFETCHES SAME FILL-ORIGIN LEVEL: 0 DIFFERENT FILL-ORIGIN LEVEL: 0

LLC TOTAL     ACCESS:    1675098  HIT:    1018029  MISS:     657069  HIT %:    60.7743  MISS %:    39.2257   MPKI: 26.2828
LLC LOAD      ACCESS:     732445  HIT:      90942  MISS:     641503  HIT %:    12.4162  MISS %:    87.5838   MPKI: 25.6601
LLC RFO       ACCESS:      33673  HIT:      33669  MISS:          4  HIT %:    99.9881  MISS %:   0.011879   MPKI: 0.00016
LLC WRITEBACK ACCESS:     554551  HIT:     554551  MISS:          0  HIT %:        100  MISS %:          0   MPKI: 0
LLC LOAD TRANSLATION ACCESS:     116225  HIT:     113916  MISS:       2309  HIT %:    98.0133  MISS %:    1.98666   MPKI: 0.09236
LLC PREFETCH TRANSLATION ACCESS:     238204  HIT:     224951  MISS:      13253  HIT %:    94.4363  MISS %:    5.56372   MPKI: 0.53012
LLC PREFETCH  REQUESTED:          0  ISSUED:          0  USEFUL:       8439  USELESS:       4791
LLC USEFUL LOAD PREFETCHES:       8439 PREFETCH ISSUED TO LOWER LEVEL:          0  ACCURACY: inf
LLC TIMELY PREFETCHES:       8439 LATE PREFETCHES: 0 DROPPED PREFETCHES: 0
LLC PREFETCHES SAME FILL-ORIGIN LEVEL: 0 DIFFERENT FILL-ORIGIN LEVEL: 0
LLC AVERAGE MISS LATENCY: 170.764 cycles
LLC RQ	ACCESS:    1120549	FORWARD:          0	MERGED:          0	TO_CACHE:    1120549
LLC WQ	ACCESS:     554551	FORWARD:          0	MERGED:          0	TO_CACHE:     554551

LLC Dense regions hint to LLC: 0

RAW hits: 485123
Loads Generated: 6650534
Loads sent to L1D: 6165408
Stores Generated: 1108672
Stores sent to L1D: 1108674
Major fault: 0 Minor fault: 23116
Allocated PAGES: 23116
CPU 0 STLB arbitrary stride prefetcher final stats
Degree: 5

DRAM Statistics
 CHANNEL 0
 RQ ROW_BUFFER_HIT:       1109  ROW_BUFFER_MISS:     655960
 DBUS_CONGESTED:          2
 WQ ROW_BUFFER_HIT:     241390  ROW_BUFFER_MISS:     312564  FULL:          0

 AVG_CONGESTED_CYCLE: 5
 All warmup complete: 2
Channel 0 Bank busy for read cycles: 0
Channel 0 Bank busy for write cycles: 0
Channel 0
Rank 0
0banks busy for read cycles: 1877010
0banks busy for write cycles: 42883
1banks busy for read cycles: 19306196
1banks busy for write cycles: 3587985
2banks busy for read cycles: 13612105
2banks busy for write cycles: 5562173
3banks busy for read cycles: 11829152
3banks busy for write cycles: 8710515
4banks busy for read cycles: 4023956
4banks busy for write cycles: 8419860
5banks busy for read cycles: 67182
5banks busy for write cycles: 4037085
6banks busy for read cycles: 180
6banks busy for write cycles: 1890990
7banks busy for read cycles: 0
7banks busy for write cycles: 995343
8banks busy for read cycles: 0
8banks busy for write cycles: 721106

CPU 0 Branch Prediction Accuracy: 99.9685% MPKI: 0.04912 Average ROB Occupancy at Mispredict: 155.837
Branch types
NOT_BRANCH: 21105636 84.4225%
BRANCH_DIRECT_JUMP: 568310 2.27324%
BRANCH_INDIRECT: 0 0%
BRANCH_CONDITIONAL: 2217336 8.86934%
BRANCH_DIRECT_CALL: 554334 2.21734%
BRANCH_INDIRECT_CALL: 0 0%
BRANCH_RETURN: 554334 2.21734%
BRANCH_OTHER: 0 0%

DRAM PAGES: 1048576
Allocated PAGES: 23116
