
*** ChampSim Multicore Out-of-Order Simulator ***

Warmup Instructions: 25000000
Simulation Instructions: 25000000
Number of CPUs: 1
LLC sets: 2048
LLC ways: 16
Off-chip DRAM Size: 4096 MB Channels: 1 Width: 64-bit Data Rate: 6400 MT/s
CPU 0 runs ./traces/trace1.champsimtrace.xz
.xz
CPU 0 Bimodal branch predictor
BTB has LRU replacement policy
ITLB has LRU replacement policy
DTLB has LRU replacement policy
CPU 0 STLB arbitrary stride prefetcher
STLB has LRU replacement policy
L1I has LRU replacement policy
L1D has LRU replacement policy
L2C has LRU replacement policy
LLC has LRU replacement policy
Heartbeat CPU 0 instructions: 10000003 cycles: 2817855 heartbeat IPC: 3.5488 cumulative IPC: 3.5488 (Simulation time: 0 hr 0 min 17 sec) 
Heartbeat CPU 0 instructions: 20000003 cycles: 5626212 heartbeat IPC: 3.5608 cumulative IPC: 3.55479 (Simulation time: 0 hr 0 min 33 sec) 

Warmup complete CPU 0 instructions: 25000004 cycles: 7035276 (Simulation time: 0 hr 0 min 42 sec) 

Heartbeat CPU 0 instructions: 30000002 cycles: 23509435 heartbeat IPC: 0.559183 cumulative IPC: 0.303506 (Simulation time: 0 hr 1 min 2 sec) 
Heartbeat CPU 0 instructions: 40000001 cycles: 58725253 heartbeat IPC: 0.283963 cumulative IPC: 0.290192 (Simulation time: 0 hr 1 min 44 sec) 
Heartbeat CPU 0 instructions: 50000000 cycles: 92756784 heartbeat IPC: 0.293845 cumulative IPC: 0.291642 (Simulation time: 0 hr 2 min 25 sec) 
Finished CPU 0 instructions: 25000000 cycles: 85721510 cumulative IPC: 0.291642 (Simulation time: 0 hr 2 min 25 sec) 

ChampSim completed all CPUs

Region of Interest Statistics

CPU 0 cumulative IPC: 0.291642 instructions: 25000000 cycles: 85721510
ITLB TOTAL     ACCESS:    4434069  HIT:    4434069  MISS:          0  HIT %:        100  MISS %:          0   MPKI: 0
ITLB LOAD TRANSLATION ACCESS:    4434069  HIT:    4434069  MISS:          0  HIT %:        100  MISS %:          0   MPKI: 0
ITLB PREFETCH  REQUESTED:          0  ISSUED:          0  USEFUL:          0  USELESS:          0
ITLB USEFUL LOAD PREFETCHES:          0 PREFETCH ISSUED TO LOWER LEVEL:          0  ACCURACY: -nan
ITLB TIMELY PREFETCHES:          0 LATE PREFETCHES: 0 DROPPED PREFETCHES: 0
ITLB PREFETCHES SAME FILL-ORIGIN LEVEL: 0 DIFFERENT FILL-ORIGIN LEVEL: 0
ITLB AVERAGE MISS LATENCY: -nan cycles
ITLB RQ	ACCESS:    4787961	FORWARD:          0	MERGED:     353892	TO_CACHE:    4434069

DTLB TOTAL     ACCESS:    3708688  HIT:    3045756  MISS:     662932  HIT %:    82.1249  MISS %:    17.8751   MPKI: 26.5173
DTLB LOAD TRANSLATION ACCESS:    3708688  HIT:    3045756  MISS:     662932  HIT %:    82.1249  MISS %:    17.8751   MPKI: 26.5173
DTLB PREFETCH  REQUESTED:          0  ISSUED:          0  USEFUL:          0  USELESS:          0
DTLB USEFUL LOAD PREFETCHES:          0 PREFETCH ISSUED TO LOWER LEVEL:          0  ACCURACY: -nan
DTLB TIMELY PREFETCHES:          0 LATE PREFETCHES: 0 DROPPED PREFETCHES: 0
DTLB PREFETCHES SAME FILL-ORIGIN LEVEL: 0 DIFFERENT FILL-ORIGIN LEVEL: 0
DTLB AVERAGE MISS LATENCY: 45.6494 cycles
DTLB RQ	ACCESS:    4309653	FORWARD:          0	MERGED:     592762	TO_CACHE:    3716891

STLB TOTAL     ACCESS:     946467  HIT:     137680  MISS:     808787  HIT %:    14.5467  MISS %:    85.4533   MPKI: 32.3515
STLB LOAD TRANSLATION ACCESS:     662932  HIT:     136226  MISS:     526706  HIT %:     20.549  MISS %:     79.451   MPKI: 21.0682
STLB PREFETCH TRANSLATION ACCESS:     283535  HIT:       1454  MISS:     282081  HIT %:   0.512811  MISS %:    99.4872   MPKI: 11.2832
STLB PREFETCH  REQUESTED:     430275  ISSUED:     430253  USEFUL:      37554  USELESS:     244641
STLB USEFUL LOAD PREFETCHES:      37554 PREFETCH ISSUED TO LOWER LEVEL:     374290  ACCURACY: 10.0334
STLB TIMELY PREFETCHES:      37554 LATE PREFETCHES: 10983 DROPPED PREFETCHES: 81228
STLB PREFETCHES SAME FILL-ORIGIN LEVEL: 374290 DIFFERENT FILL-ORIGIN LEVEL: 0
STLB AVERAGE MISS LATENCY: 71.2391 cycles
STLB RQ	ACCESS:     662935	FORWARD:          0	MERGED:          0	TO_CACHE:     662935
STLB PQ	ACCESS:     430253	FORWARD:          0	MERGED:      23697	TO_CACHE:     406556

STLB Hit, L1D data hit: 0
STLB Hit, L2C data hit: 0
STLB Hit, LLC data hit: 0
STLB Hit, LLC data miss: 0
STLB STLB hints to L2: 0
L1D TOTAL     ACCESS:    4291070  HIT:    3085795  MISS:    1205275  HIT %:     71.912  MISS %:     28.088   MPKI: 48.211
L1D LOAD      ACCESS:    3182406  HIT:    2046495  MISS:    1135911  HIT %:    64.3065  MISS %:    35.6935   MPKI: 45.4364
L1D RFO       ACCESS:    1108664  HIT:    1039300  MISS:      69364  HIT %:    93.7435  MISS %:    6.25654   MPKI: 2.77456
L1D PREFETCH  REQUESTED:          0  ISSUED:          0  USEFUL:          0  USELESS:          0
L1D USEFUL LOAD PREFETCHES:          0 PREFETCH ISSUED TO LOWER LEVEL:          0  ACCURACY: -nan
L1D TIMELY PREFETCHES:          0 LATE PREFETCHES: 0 DROPPED PREFETCHES: 0
L1D PREFETCHES SAME FILL-ORIGIN LEVEL: 0 DIFFERENT FILL-ORIGIN LEVEL: 0
L1D AVERAGE MISS LATENCY: 124.949 cycles
L1D RQ	ACCESS:    6161851	FORWARD:          0	MERGED:    2896023	TO_CACHE:    3200987
L1D WQ	ACCESS:    1108674	FORWARD:      64841	MERGED:          8	TO_CACHE:    1108666

L1D UNIQUE REGIONS ACCESSED: 0
L1D REGIONS CONFLICTS: 0
L1D Cross Page Prefetch Requests: 0
L1D Same Page Prefetch Requests: 0
L1D ROI Sum of L1D PQ occupancy: 0
L1D PREFETCHES PUSHED FROM L2C: 0
L1I TOTAL     ACCESS:    4787959  HIT:    4787959  MISS:          0  HIT %:        100  MISS %:          0   MPKI: 0
L1I LOAD      ACCESS:    4787959  HIT:    4787959  MISS:          0  HIT %:        100  MISS %:          0   MPKI: 0
L1I PREFETCH  REQUESTED:          0  ISSUED:          0  USEFUL:          0  USELESS:          0
L1I USEFUL LOAD PREFETCHES:          0 PREFETCH ISSUED TO LOWER LEVEL:          0  ACCURACY: -nan
L1I TIMELY PREFETCHES:          0 LATE PREFETCHES: 0 DROPPED PREFETCHES: 0
L1I PREFETCHES SAME FILL-ORIGIN LEVEL: 0 DIFFERENT FILL-ORIGIN LEVEL: 0
L1I AVERAGE MISS LATENCY: -nan cycles
L1I RQ	ACCESS:    7079495	FORWARD:          0	MERGED:    2291534	TO_CACHE:    4787961

BTB TOTAL     ACCESS:    3283965  HIT:    3283957  MISS:          8  HIT %:    99.9998  MISS %: 0.000243608   MPKI: 0.00032
BTB BRANCH_DIRECT_JUMP	ACCESS:     568311  HIT:     568309  MISS:          2
BTB BRANCH_INDIRECT	ACCESS:          0  HIT:          0  MISS:          0
BTB BRANCH_CONDITIONAL	ACCESS:    1606986  HIT:    1606982  MISS:          4
BTB BRANCH_DIRECT_CALL	ACCESS:     554334  HIT:     554333  MISS:          1
BTB BRANCH_INDIRECT_CALL	ACCESS:          0  HIT:          0  MISS:          0
BTB BRANCH_RETURN	ACCESS:     554334  HIT:     554333  MISS:          1
BTB BRANCH_OTHER ACCESS:          0  HIT:          0  MISS:          0

L2C TOTAL     ACCESS:    2745113  HIT:    1694726  MISS:    1050387  HIT %:    61.7361  MISS %:    38.2639   MPKI: 42.0155
L2C LOAD      ACCESS:    1135911  HIT:     411647  MISS:     724264  HIT %:    36.2394  MISS %:    63.7606   MPKI: 28.9706
L2C DATA LOAD MPKI: 28.9706
L2C INSTRUCTION LOAD MPKI: 0
L2C RFO       ACCESS:      69364  HIT:      39470  MISS:      29894  HIT %:    56.9027  MISS %:    43.0973   MPKI: 1.19576
L2C WRITEBACK ACCESS:     554349  HIT:     554349  MISS:          0  HIT %:        100  MISS %:          0   MPKI: 0
L2C LOAD TRANSLATION ACCESS:     559060  HIT:     400956  MISS:     158104  HIT %:    71.7197  MISS %:    28.2803   MPKI: 6.32416
L2C PREFETCH TRANSLATION ACCESS:     426429  HIT:     288304  MISS:     138125  HIT %:    67.6089  MISS %:    32.3911   MPKI: 5.525
L2C PREFETCH  REQUESTED:          0  ISSUED:          0  USEFUL:     101508  USELESS:      36748
L2C USEFUL LOAD PREFETCHES:     101508 PREFETCH ISSUED TO LOWER LEVEL:          0  ACCURACY: inf
L2C TIMELY PREFETCHES:     101508 LATE PREFETCHES: 0 DROPPED PREFETCHES: 0
L2C PREFETCHES SAME FILL-ORIGIN LEVEL: 0 DIFFERENT FILL-ORIGIN LEVEL: 0
L2C AVERAGE MISS LATENCY: 136.509 cycles
L2C RQ	ACCESS:    2190765	FORWARD:          0	MERGED:          0	TO_CACHE:    2190765
L2C WQ	ACCESS:     554349	FORWARD:          0	MERGED:          0	TO_CACHE:     554349

L2C Instructions Evicting Data 0
L2C Translations Evicting Data 176459
L2C Data Evicting Data 577498
L2C Instructions Evicting Instructions 0
L2C Translations Evicting Instructions 0
L2C Data Evicting Instructions 0
L2C Instructions Evicting Translations 0
L2C Translations Evicting Translations 119770
L2C Data Evicting Translations 176660
L2C Dense regions hint from L2: 0
PSCL5 TOTAL     ACCESS:     890015  HIT:     890015  MISS:          0  HIT %:        100  MISS %:          0   MPKI: 0
PSCL5 LOAD TRANSLATION ACCESS:     515724  HIT:     515724  MISS:          0  HIT %:        100  MISS %:          0   MPKI: 0
PSCL5 PREFETCH TRANSLATION ACCESS:     374291  HIT:     374291  MISS:          0  HIT %:        100  MISS %:          0   MPKI: 0
PSCL5 PREFETCH  REQUESTED:          0  ISSUED:          0  USEFUL:          0  USELESS:          0
PSCL5 USEFUL LOAD PREFETCHES:          0 PREFETCH ISSUED TO LOWER LEVEL:          0  ACCURACY: -nan
PSCL5 TIMELY PREFETCHES:          0 LATE PREFETCHES: 0 DROPPED PREFETCHES: 0
PSCL5 PREFETCHES SAME FILL-ORIGIN LEVEL: 0 DIFFERENT FILL-ORIGIN LEVEL: 0

PSCL4 TOTAL     ACCESS:     890015  HIT:     890015  MISS:          0  HIT %:        100  MISS %:          0   MPKI: 0
PSCL4 LOAD TRANSLATION ACCESS:     515724  HIT:     515724  MISS:          0  HIT %:        100  MISS %:          0   MPKI: 0
PSCL4 PREFETCH TRANSLATION ACCESS:     374291  HIT:     374291  MISS:          0  HIT %:        100  MISS %:          0   MPKI: 0
PSCL4 PREFETCH  REQUESTED:          0  ISSUED:          0  USEFUL:          0  USELESS:          0
PSCL4 USEFUL LOAD PREFETCHES:          0 PREFETCH ISSUED TO LOWER LEVEL:          0  ACCURACY: -nan
PSCL4 TIMELY PREFETCHES:          0 LATE PREFETCHES: 0 DROPPED PREFETCHES: 0
PSCL4 PREFETCHES SAME FILL-ORIGIN LEVEL: 0 DIFFERENT FILL-ORIGIN LEVEL: 0

PSCL3 TOTAL     ACCESS:     889828  HIT:     889828  MISS:          0  HIT %:        100  MISS %:          0   MPKI: 0
PSCL3 LOAD TRANSLATION ACCESS:     515724  HIT:     515724  MISS:          0  HIT %:        100  MISS %:          0   MPKI: 0
PSCL3 PREFETCH TRANSLATION ACCESS:     374104  HIT:     374104  MISS:          0  HIT %:        100  MISS %:          0   MPKI: 0
PSCL3 PREFETCH  REQUESTED:          0  ISSUED:          0  USEFUL:          0  USELESS:          0
PSCL3 USEFUL LOAD PREFETCHES:          0 PREFETCH ISSUED TO LOWER LEVEL:          0  ACCURACY: -nan
PSCL3 TIMELY PREFETCHES:          0 LATE PREFETCHES: 0 DROPPED PREFETCHES: 0
PSCL3 PREFETCHES SAME FILL-ORIGIN LEVEL: 0 DIFFERENT FILL-ORIGIN LEVEL: 0

PSCL2 TOTAL     ACCESS:     871488  HIT:     793474  MISS:      78014  HIT %:    91.0482  MISS %:    8.95182   MPKI: 3.12056
PSCL2 LOAD TRANSLATION ACCESS:     550401  HIT:     472387  MISS:      78014  HIT %:     85.826  MISS %:     14.174   MPKI: 3.12056
PSCL2 PREFETCH TRANSLATION ACCESS:     321087  HIT:     321087  MISS:          0  HIT %:        100  MISS %:          0   MPKI: 0
PSCL2 PREFETCH  REQUESTED:          0  ISSUED:          0  USEFUL:          0  USELESS:          0
PSCL2 USEFUL LOAD PREFETCHES:          0 PREFETCH ISSUED TO LOWER LEVEL:          0  ACCURACY: -nan
PSCL2 TIMELY PREFETCHES:          0 LATE PREFETCHES: 0 DROPPED PREFETCHES: 0
PSCL2 PREFETCHES SAME FILL-ORIGIN LEVEL: 0 DIFFERENT FILL-ORIGIN LEVEL: 0

LLC TOTAL     ACCESS:    1605053  HIT:     950575  MISS:     654478  HIT %:    59.2239  MISS %:    40.7761   MPKI: 26.1791
LLC LOAD      ACCESS:     724264  HIT:      82750  MISS:     641514  HIT %:    11.4254  MISS %:    88.5746   MPKI: 25.6606
LLC RFO       ACCESS:      29894  HIT:      29890  MISS:          4  HIT %:    99.9866  MISS %:  0.0133806   MPKI: 0.00016
LLC WRITEBACK ACCESS:     554666  HIT:     554666  MISS:          0  HIT %:        100  MISS %:          0   MPKI: 0
LLC LOAD TRANSLATION ACCESS:     158104  HIT:     154102  MISS:       4002  HIT %:    97.4688  MISS %:    2.53125   MPKI: 0.16008
LLC PREFETCH TRANSLATION ACCESS:     138125  HIT:     129167  MISS:       8958  HIT %:    93.5146  MISS %:    6.48543   MPKI: 0.35832
LLC PREFETCH  REQUESTED:          0  ISSUED:          0  USEFUL:       5717  USELESS:       3291
LLC USEFUL LOAD PREFETCHES:       5717 PREFETCH ISSUED TO LOWER LEVEL:          0  ACCURACY: inf
LLC TIMELY PREFETCHES:       5717 LATE PREFETCHES: 0 DROPPED PREFETCHES: 0
LLC PREFETCHES SAME FILL-ORIGIN LEVEL: 0 DIFFERENT FILL-ORIGIN LEVEL: 0
LLC AVERAGE MISS LATENCY: 170.759 cycles
LLC RQ	ACCESS:    1050388	FORWARD:          0	MERGED:          0	TO_CACHE:    1050388
LLC WQ	ACCESS:     554666	FORWARD:          0	MERGED:          0	TO_CACHE:     554666

LLC Dense regions hint to LLC: 0

RAW hits: 488681
Loads Generated: 6650535
Loads sent to L1D: 6161851
Stores Generated: 1108672
Stores sent to L1D: 1108674
Major fault: 0 Minor fault: 23115
Allocated PAGES: 23115
CPU 0 STLB arbitrary stride prefetcher final stats
Degree: 3

DRAM Statistics
 CHANNEL 0
 RQ ROW_BUFFER_HIT:        942  ROW_BUFFER_MISS:     653536
 DBUS_CONGESTED:          2
 WQ ROW_BUFFER_HIT:     226987  ROW_BUFFER_MISS:     327237  FULL:          0

 AVG_CONGESTED_CYCLE: 7
 All warmup complete: 2
Channel 0 Bank busy for read cycles: 0
Channel 0 Bank busy for write cycles: 0
Channel 0
Rank 0
0banks busy for read cycles: 2165412
0banks busy for write cycles: 48646
1banks busy for read cycles: 19831181
1banks busy for write cycles: 3929040
2banks busy for read cycles: 13862386
2banks busy for write cycles: 5889629
3banks busy for read cycles: 11571258
3banks busy for write cycles: 9112914
4banks busy for read cycles: 3866505
4banks busy for write cycles: 8367279
5banks busy for read cycles: 68178
5banks busy for write cycles: 3780818
6banks busy for read cycles: 217
6banks busy for write cycles: 1696137
7banks busy for read cycles: 0
7banks busy for write cycles: 876285
8banks busy for read cycles: 0
8banks busy for write cycles: 655626

CPU 0 Branch Prediction Accuracy: 99.9685% MPKI: 0.04912 Average ROB Occupancy at Mispredict: 155.812
Branch types
NOT_BRANCH: 21105652 84.4226%
BRANCH_DIRECT_JUMP: 568311 2.27324%
BRANCH_INDIRECT: 0 0%
BRANCH_CONDITIONAL: 2217337 8.86935%
BRANCH_DIRECT_CALL: 554334 2.21734%
BRANCH_INDIRECT_CALL: 0 0%
BRANCH_RETURN: 554334 2.21734%
BRANCH_OTHER: 0 0%

DRAM PAGES: 1048576
Allocated PAGES: 23115
