
*** ChampSim Multicore Out-of-Order Simulator ***

Warmup Instructions: 25000000
Simulation Instructions: 25000000
Number of CPUs: 1
LLC sets: 2048
LLC ways: 16
Off-chip DRAM Size: 4096 MB Channels: 1 Width: 64-bit Data Rate: 6400 MT/s
CPU 0 runs ./traces/trace2.champsimtrace.xz
.xz
CPU 0 Bimodal branch predictor
BTB has LRU replacement policy
ITLB has LRU replacement policy
DTLB has LRU replacement policy
STLB has LRU replacement policy
L1I has LRU replacement policy
CPU 0 L1D IP-based stride prefetcher
L1D has LRU replacement policy
L2C has LRU replacement policy
LLC has LRU replacement policy
Heartbeat CPU 0 instructions: 10000002 cycles: 3738184 heartbeat IPC: 2.6751 cumulative IPC: 2.6751 (Simulation time: 0 hr 0 min 25 sec) 
Heartbeat CPU 0 instructions: 20000001 cycles: 7477889 heartbeat IPC: 2.67401 cumulative IPC: 2.67455 (Simulation time: 0 hr 0 min 54 sec) 

Warmup complete CPU 0 instructions: 25000001 cycles: 9346749 (Simulation time: 0 hr 1 min 11 sec) 

Heartbeat CPU 0 instructions: 30000001 cycles: 26699685 heartbeat IPC: 0.520243 cumulative IPC: 0.288136 (Simulation time: 0 hr 1 min 44 sec) 
Heartbeat CPU 0 instructions: 40000002 cycles: 60977477 heartbeat IPC: 0.291734 cumulative IPC: 0.290525 (Simulation time: 0 hr 2 min 44 sec) 
Heartbeat CPU 0 instructions: 50000000 cycles: 93900961 heartbeat IPC: 0.303735 cumulative IPC: 0.295668 (Simulation time: 0 hr 3 min 42 sec) 
Finished CPU 0 instructions: 25000000 cycles: 84554234 cumulative IPC: 0.295668 (Simulation time: 0 hr 3 min 42 sec) 

ChampSim completed all CPUs

Region of Interest Statistics

CPU 0 cumulative IPC: 0.295668 instructions: 25000000 cycles: 84554234
ITLB TOTAL     ACCESS:    4714864  HIT:    4714864  MISS:          0  HIT %:        100  MISS %:          0   MPKI: 0
ITLB LOAD TRANSLATION ACCESS:    4714864  HIT:    4714864  MISS:          0  HIT %:        100  MISS %:          0   MPKI: 0
ITLB PREFETCH  REQUESTED:          0  ISSUED:          0  USEFUL:          0  USELESS:          0
ITLB USEFUL LOAD PREFETCHES:          0 PREFETCH ISSUED TO LOWER LEVEL:          0  ACCURACY: -nan
ITLB TIMELY PREFETCHES:          0 LATE PREFETCHES: 0 DROPPED PREFETCHES: 0
ITLB PREFETCHES SAME FILL-ORIGIN LEVEL: 0 DIFFERENT FILL-ORIGIN LEVEL: 0
ITLB AVERAGE MISS LATENCY: -nan cycles
ITLB RQ	ACCESS:    4800278	FORWARD:          0	MERGED:      85415	TO_CACHE:    4714863

DTLB TOTAL     ACCESS:    3869661  HIT:    3835645  MISS:      34016  HIT %:     99.121  MISS %:   0.879043   MPKI: 1.36064
DTLB LOAD TRANSLATION ACCESS:    3869661  HIT:    3835645  MISS:      34016  HIT %:     99.121  MISS %:   0.879043   MPKI: 1.36064
DTLB PREFETCH  REQUESTED:          0  ISSUED:          0  USEFUL:          0  USELESS:          0
DTLB USEFUL LOAD PREFETCHES:          0 PREFETCH ISSUED TO LOWER LEVEL:          0  ACCURACY: -nan
DTLB TIMELY PREFETCHES:          0 LATE PREFETCHES: 0 DROPPED PREFETCHES: 0
DTLB PREFETCHES SAME FILL-ORIGIN LEVEL: 0 DIFFERENT FILL-ORIGIN LEVEL: 0
DTLB AVERAGE MISS LATENCY: 106.486 cycles
DTLB RQ	ACCESS:    4553740	FORWARD:          0	MERGED:     683963	TO_CACHE:    3869777

STLB TOTAL     ACCESS:    1661252  HIT:    1628565  MISS:      32687  HIT %:    98.0324  MISS %:    1.96761   MPKI: 1.30748
STLB LOAD TRANSLATION ACCESS:      34016  HIT:       1331  MISS:      32685  HIT %:    3.91286  MISS %:    96.0871   MPKI: 1.3074
STLB TRANSLATION FROM L1D PREFETCHER ACCESS:    1627236  HIT:    1627234  MISS:          2  HIT %:    99.9999  MISS %: 0.000122908   MPKI: 8e-05
STLB PREFETCH  REQUESTED:          0  ISSUED:          0  USEFUL:          2  USELESS:          0
STLB USEFUL LOAD PREFETCHES:          2 PREFETCH ISSUED TO LOWER LEVEL:          0  ACCURACY: inf
STLB TIMELY PREFETCHES:          2 LATE PREFETCHES: 0 DROPPED PREFETCHES: 0
STLB PREFETCHES SAME FILL-ORIGIN LEVEL: 0 DIFFERENT FILL-ORIGIN LEVEL: 0
STLB AVERAGE MISS LATENCY: 101.452 cycles
STLB RQ	ACCESS:    5488633	FORWARD:          0	MERGED:    3827381	TO_CACHE:    1661252

STLB Hit, L1D data hit: 0
STLB Hit, L2C data hit: 0
STLB Hit, LLC data hit: 0
STLB Hit, LLC data miss: 0
STLB STLB hints to L2: 0
L1D TOTAL     ACCESS:    7356794  HIT:    5589450  MISS:    1767344  HIT %:    75.9767  MISS %:    24.0233   MPKI: 70.6938
L1D LOAD      ACCESS:    4185787  HIT:    3760121  MISS:     425666  HIT %:    89.8307  MISS %:    10.1693   MPKI: 17.0266
L1D RFO       ACCESS:     333352  HIT:     332704  MISS:        648  HIT %:    99.8056  MISS %:   0.194389   MPKI: 0.02592
L1D PREFETCH  ACCESS:    2837655  HIT:    1496625  MISS:    1341030  HIT %:    52.7416  MISS %:    47.2584   MPKI: 53.6412
AGUS PREFETCH L1 MISS: 0
L1D PREFETCH  REQUESTED:   13526820  ISSUED:   13526735  USEFUL:    1323572  USELESS:      17468
L1D USEFUL LOAD PREFETCHES:    1323572 PREFETCH ISSUED TO LOWER LEVEL:    1656739  ACCURACY: 79.8902
L1D TIMELY PREFETCHES:    1323572 LATE PREFETCHES: 315690 DROPPED PREFETCHES: 0
L1D PREFETCHES SAME FILL-ORIGIN LEVEL: 1656739 DIFFERENT FILL-ORIGIN LEVEL: 0
L1D AVERAGE MISS LATENCY: 121.482 cycles
L1D RQ	ACCESS:    8972923	FORWARD:          0	MERGED:    4750990	TO_CACHE:    4220384
L1D WQ	ACCESS:     370377	FORWARD:       1579	MERGED:      37021	TO_CACHE:     333356
L1D PQ	ACCESS:    8072118	FORWARD:          0	MERGED:    2617471	TO_CACHE:    5454617

L1D UNIQUE REGIONS ACCESSED: 0
L1D REGIONS CONFLICTS: 0
L1D Cross Page Prefetch Requests: 0
L1D Same Page Prefetch Requests: 27173251
L1D ROI Sum of L1D PQ occupancy: 76135170
L1D PREFETCHES PUSHED FROM L2C: 0
L1I TOTAL     ACCESS:    4800278  HIT:    4800278  MISS:          0  HIT %:        100  MISS %:          0   MPKI: 0
L1I LOAD      ACCESS:    4800278  HIT:    4800278  MISS:          0  HIT %:        100  MISS %:          0   MPKI: 0
L1I PREFETCH  REQUESTED:          0  ISSUED:          0  USEFUL:          0  USELESS:          0
L1I USEFUL LOAD PREFETCHES:          0 PREFETCH ISSUED TO LOWER LEVEL:          0  ACCURACY: -nan
L1I TIMELY PREFETCHES:          0 LATE PREFETCHES: 0 DROPPED PREFETCHES: 0
L1I PREFETCHES SAME FILL-ORIGIN LEVEL: 0 DIFFERENT FILL-ORIGIN LEVEL: 0
L1I AVERAGE MISS LATENCY: -nan cycles
L1I RQ	ACCESS:    7174171	FORWARD:          0	MERGED:    2373893	TO_CACHE:    4800278

BTB TOTAL     ACCESS:    5953193  HIT:    5953095  MISS:         98  HIT %:    99.9984  MISS %: 0.00164618   MPKI: 0.00392
BTB BRANCH_DIRECT_JUMP	ACCESS:      85874  HIT:      85848  MISS:         26
BTB BRANCH_INDIRECT	ACCESS:          0  HIT:          0  MISS:          0
BTB BRANCH_CONDITIONAL	ACCESS:    5783213  HIT:    5783164  MISS:         49
BTB BRANCH_DIRECT_CALL	ACCESS:      42053  HIT:      42043  MISS:         10
BTB BRANCH_INDIRECT_CALL	ACCESS:          0  HIT:          0  MISS:          0
BTB BRANCH_RETURN	ACCESS:      42053  HIT:      42040  MISS:         13
BTB BRANCH_OTHER ACCESS:          0  HIT:          0  MISS:          0

L2C TOTAL     ACCESS:    1803441  HIT:      33572  MISS:    1769869  HIT %:    1.86155  MISS %:    98.1384   MPKI: 70.7948
L2C LOAD      ACCESS:     109975  HIT:       1795  MISS:     108180  HIT %:    1.63219  MISS %:    98.3678   MPKI: 4.3272
L2C DATA LOAD MPKI: 4.3272
L2C INSTRUCTION LOAD MPKI: 0
L2C RFO       ACCESS:        629  HIT:         42  MISS:        587  HIT %:    6.67727  MISS %:    93.3227   MPKI: 0.02348
L2C PREFETCH  ACCESS:    1656739  HIT:       3125  MISS:    1653614  HIT %:   0.188624  MISS %:    99.8114   MPKI: 66.1446
AGUS PREFETCH L1 MISS: 0
L2C DATA PREFETCH MPKI: 66.1446
L2C INSTRUCTION PREFETCH MPKI: 0
L2C WRITEBACK ACCESS:       2775  HIT:       2768  MISS:          7  HIT %:    99.7477  MISS %:   0.252252   MPKI: 0.00028
L2C LOAD TRANSLATION ACCESS:      33319  HIT:      25840  MISS:       7479  HIT %:    77.5533  MISS %:    22.4467   MPKI: 0.29916
L2C TRANSLATION FROM L1D PREFETCHER ACCESS:          4  HIT:          2  MISS:          2  HIT %:         50  MISS %:         50   MPKI: 8e-05
L2C PREFETCH  REQUESTED:          0  ISSUED:          0  USEFUL:       1305  USELESS:    1651946
L2C USEFUL LOAD PREFETCHES:       1305 PREFETCH ISSUED TO LOWER LEVEL:    1653614  ACCURACY: 0.0789181
L2C TIMELY PREFETCHES:       1305 LATE PREFETCHES: 0 DROPPED PREFETCHES: 0
L2C PREFETCHES SAME FILL-ORIGIN LEVEL: 0 DIFFERENT FILL-ORIGIN LEVEL: 0
L2C AVERAGE MISS LATENCY: 106.739 cycles
L2C RQ	ACCESS:     143928	FORWARD:          0	MERGED:          0	TO_CACHE:     143927
L2C WQ	ACCESS:       2775	FORWARD:          1	MERGED:          0	TO_CACHE:       2775
L2C PQ	ACCESS:    1656739	FORWARD:          0	MERGED:          0	TO_CACHE:    1656739

L2C Instructions Evicting Data 0
L2C Translations Evicting Data 7452
L2C Data Evicting Data 1754943
L2C Instructions Evicting Instructions 0
L2C Translations Evicting Instructions 0
L2C Data Evicting Instructions 0
L2C Instructions Evicting Translations 0
L2C Translations Evicting Translations 29
L2C Data Evicting Translations 7438
L2C Dense regions hint from L2: 0
PSCL5 TOTAL     ACCESS:      32687  HIT:      32687  MISS:          0  HIT %:        100  MISS %:          0   MPKI: 0
PSCL5 LOAD TRANSLATION ACCESS:      32685  HIT:      32685  MISS:          0  HIT %:        100  MISS %:          0   MPKI: 0
PSCL5 TRANSLATION FROM L1D PREFETCHER ACCESS:          2  HIT:          2  MISS:          0  HIT %:        100  MISS %:          0   MPKI: 0
PSCL5 PREFETCH  REQUESTED:          0  ISSUED:          0  USEFUL:          0  USELESS:          0
PSCL5 USEFUL LOAD PREFETCHES:          0 PREFETCH ISSUED TO LOWER LEVEL:          0  ACCURACY: -nan
PSCL5 TIMELY PREFETCHES:          0 LATE PREFETCHES: 0 DROPPED PREFETCHES: 0
PSCL5 PREFETCHES SAME FILL-ORIGIN LEVEL: 0 DIFFERENT FILL-ORIGIN LEVEL: 0

PSCL4 TOTAL     ACCESS:      32687  HIT:      32687  MISS:          0  HIT %:        100  MISS %:          0   MPKI: 0
PSCL4 LOAD TRANSLATION ACCESS:      32685  HIT:      32685  MISS:          0  HIT %:        100  MISS %:          0   MPKI: 0
PSCL4 TRANSLATION FROM L1D PREFETCHER ACCESS:          2  HIT:          2  MISS:          0  HIT %:        100  MISS %:          0   MPKI: 0
PSCL4 PREFETCH  REQUESTED:          0  ISSUED:          0  USEFUL:          0  USELESS:          0
PSCL4 USEFUL LOAD PREFETCHES:          0 PREFETCH ISSUED TO LOWER LEVEL:          0  ACCURACY: -nan
PSCL4 TIMELY PREFETCHES:          0 LATE PREFETCHES: 0 DROPPED PREFETCHES: 0
PSCL4 PREFETCHES SAME FILL-ORIGIN LEVEL: 0 DIFFERENT FILL-ORIGIN LEVEL: 0

PSCL3 TOTAL     ACCESS:      32687  HIT:      32687  MISS:          0  HIT %:        100  MISS %:          0   MPKI: 0
PSCL3 LOAD TRANSLATION ACCESS:      32685  HIT:      32685  MISS:          0  HIT %:        100  MISS %:          0   MPKI: 0
PSCL3 TRANSLATION FROM L1D PREFETCHER ACCESS:          2  HIT:          2  MISS:          0  HIT %:        100  MISS %:          0   MPKI: 0
PSCL3 PREFETCH  REQUESTED:          0  ISSUED:          0  USEFUL:          0  USELESS:          0
PSCL3 USEFUL LOAD PREFETCHES:          0 PREFETCH ISSUED TO LOWER LEVEL:          0  ACCURACY: -nan
PSCL3 TIMELY PREFETCHES:          0 LATE PREFETCHES: 0 DROPPED PREFETCHES: 0
PSCL3 PREFETCHES SAME FILL-ORIGIN LEVEL: 0 DIFFERENT FILL-ORIGIN LEVEL: 0

PSCL2 TOTAL     ACCESS:      32687  HIT:      31953  MISS:        734  HIT %:    97.7545  MISS %:    2.24554   MPKI: 0.02936
PSCL2 LOAD TRANSLATION ACCESS:      32687  HIT:      31953  MISS:        734  HIT %:    97.7545  MISS %:    2.24554   MPKI: 0.02936
PSCL2 PREFETCH  REQUESTED:          0  ISSUED:          0  USEFUL:          0  USELESS:          0
PSCL2 USEFUL LOAD PREFETCHES:          0 PREFETCH ISSUED TO LOWER LEVEL:          0  ACCURACY: -nan
PSCL2 TIMELY PREFETCHES:          0 LATE PREFETCHES: 0 DROPPED PREFETCHES: 0
PSCL2 PREFETCHES SAME FILL-ORIGIN LEVEL: 0 DIFFERENT FILL-ORIGIN LEVEL: 0

LLC TOTAL     ACCESS:    1772630  HIT:       3342  MISS:    1769288  HIT %:   0.188533  MISS %:    99.8115   MPKI: 70.7715
LLC LOAD      ACCESS:     108180  HIT:        112  MISS:     108068  HIT %:   0.103531  MISS %:    99.8965   MPKI: 4.32272
LLC RFO       ACCESS:        587  HIT:          0  MISS:        587  HIT %:          0  MISS %:        100   MPKI: 0.02348
LLC PREFETCH  ACCESS:    1653614  HIT:        144  MISS:    1653470  HIT %:  0.0087082  MISS %:    99.9913   MPKI: 66.1388
AGUS PREFETCH L1 MISS: 0
LLC WRITEBACK ACCESS:       2768  HIT:       2761  MISS:          7  HIT %:    99.7471  MISS %:    0.25289   MPKI: 0.00028
LLC LOAD TRANSLATION ACCESS:       7479  HIT:        325  MISS:       7154  HIT %:     4.3455  MISS %:    95.6545   MPKI: 0.28616
LLC TRANSLATION FROM L1D PREFETCHER ACCESS:          2  HIT:          0  MISS:          2  HIT %:          0  MISS %:        100   MPKI: 8e-05
LLC PREFETCH  REQUESTED:          0  ISSUED:          0  USEFUL:         58  USELESS:    1651501
LLC USEFUL LOAD PREFETCHES:         58 PREFETCH ISSUED TO LOWER LEVEL:    1653470  ACCURACY: 0.00350777
LLC TIMELY PREFETCHES:         58 LATE PREFETCHES: 0 DROPPED PREFETCHES: 0
LLC PREFETCHES SAME FILL-ORIGIN LEVEL: 0 DIFFERENT FILL-ORIGIN LEVEL: 0
LLC AVERAGE MISS LATENCY: 76.7138 cycles
LLC RQ	ACCESS:     116248	FORWARD:          0	MERGED:          0	TO_CACHE:     116248
LLC WQ	ACCESS:       2768	FORWARD:          0	MERGED:          0	TO_CACHE:       2768
LLC PQ	ACCESS:    1653614	FORWARD:          0	MERGED:          0	TO_CACHE:    1653614

LLC Dense regions hint to LLC: 0

RAW hits: 4024
Loads Generated: 8976947
Loads sent to L1D: 8972923
Stores Generated: 370377
Stores sent to L1D: 370377
Major fault: 0 Minor fault: 48857
Allocated PAGES: 48857
CPU 0 L1D IP-based stride prefetcher final stats
Degree: 5

DRAM Statistics
 CHANNEL 0
 RQ ROW_BUFFER_HIT:    1657282  ROW_BUFFER_MISS:     111999
 DBUS_CONGESTED:        117
 WQ ROW_BUFFER_HIT:        738  ROW_BUFFER_MISS:       2026  FULL:          0

 AVG_CONGESTED_CYCLE: 5
 All warmup complete: 2
Channel 0 Bank busy for read cycles: 0
Channel 0 Bank busy for write cycles: 0
Channel 0
Rank 0
0banks busy for read cycles: 38318919
0banks busy for write cycles: 1433
1banks busy for read cycles: 14551748
1banks busy for write cycles: 341010
2banks busy for read cycles: 17553004
2banks busy for write cycles: 149999
3banks busy for read cycles: 8808622
3banks busy for write cycles: 60621
4banks busy for read cycles: 1547081
4banks busy for write cycles: 24531
5banks busy for read cycles: 1712537
5banks busy for write cycles: 8902
6banks busy for read cycles: 1441384
6banks busy for write cycles: 3718
7banks busy for read cycles: 24430
7banks busy for write cycles: 3957
8banks busy for read cycles: 1457
8banks busy for write cycles: 882

CPU 0 Branch Prediction Accuracy: 99.1323% MPKI: 3.09396 Average ROB Occupancy at Mispredict: 113.897
Branch types
NOT_BRANCH: 16085563 64.3423%
BRANCH_DIRECT_JUMP: 85874 0.343496%
BRANCH_INDIRECT: 0 0%
BRANCH_CONDITIONAL: 8744101 34.9764%
BRANCH_DIRECT_CALL: 42053 0.168212%
BRANCH_INDIRECT_CALL: 0 0%
BRANCH_RETURN: 42053 0.168212%
BRANCH_OTHER: 0 0%

DRAM PAGES: 1048576
Allocated PAGES: 48857
