
*** ChampSim Multicore Out-of-Order Simulator ***

Warmup Instructions: 25000000
Simulation Instructions: 25000000
Number of CPUs: 1
LLC sets: 2048
LLC ways: 16
Off-chip DRAM Size: 4096 MB Channels: 1 Width: 64-bit Data Rate: 6400 MT/s
CPU 0 runs ./traces/trace1.champsimtrace.xz
.xz
CPU 0 Bimodal branch predictor
BTB has LRU replacement policy
ITLB has LRU replacement policy
DTLB has LRU replacement policy
CPU 0 STLB arbitrary stride prefetcher
STLB has LRU replacement policy
L1I has LRU replacement policy
L1D has LRU replacement policy
L2C has LRU replacement policy
LLC has LRU replacement policy
Heartbeat CPU 0 instructions: 10000003 cycles: 2819165 heartbeat IPC: 3.54715 cumulative IPC: 3.54715 (Simulation time: 0 hr 0 min 17 sec) 
Heartbeat CPU 0 instructions: 20000003 cycles: 5627652 heartbeat IPC: 3.56064 cumulative IPC: 3.55388 (Simulation time: 0 hr 0 min 41 sec) 

Warmup complete CPU 0 instructions: 25000004 cycles: 7036869 (Simulation time: 0 hr 0 min 52 sec) 

Heartbeat CPU 0 instructions: 30000002 cycles: 23422101 heartbeat IPC: 0.561973 cumulative IPC: 0.305153 (Simulation time: 0 hr 1 min 19 sec) 
Heartbeat CPU 0 instructions: 40000001 cycles: 58393355 heartbeat IPC: 0.285949 cumulative IPC: 0.292076 (Simulation time: 0 hr 2 min 7 sec) 
Heartbeat CPU 0 instructions: 50000000 cycles: 92191705 heartbeat IPC: 0.295872 cumulative IPC: 0.293583 (Simulation time: 0 hr 2 min 49 sec) 
Finished CPU 0 instructions: 25000000 cycles: 85154838 cumulative IPC: 0.293583 (Simulation time: 0 hr 2 min 49 sec) 

ChampSim completed all CPUs

Region of Interest Statistics

CPU 0 cumulative IPC: 0.293583 instructions: 25000000 cycles: 85154838
ITLB TOTAL     ACCESS:    4433243  HIT:    4433243  MISS:          0  HIT %:        100  MISS %:          0   MPKI: 0
ITLB LOAD TRANSLATION ACCESS:    4433243  HIT:    4433243  MISS:          0  HIT %:        100  MISS %:          0   MPKI: 0
ITLB PREFETCH  REQUESTED:          0  ISSUED:          0  USEFUL:          0  USELESS:          0
ITLB USEFUL LOAD PREFETCHES:          0 PREFETCH ISSUED TO LOWER LEVEL:          0  ACCURACY: -nan
ITLB TIMELY PREFETCHES:          0 LATE PREFETCHES: 0 DROPPED PREFETCHES: 0
ITLB PREFETCHES SAME FILL-ORIGIN LEVEL: 0 DIFFERENT FILL-ORIGIN LEVEL: 0
ITLB AVERAGE MISS LATENCY: -nan cycles
ITLB RQ	ACCESS:    4787457	FORWARD:          0	MERGED:     354214	TO_CACHE:    4433243

DTLB TOTAL     ACCESS:    3705084  HIT:    3042153  MISS:     662931  HIT %:    82.1075  MISS %:    17.8925   MPKI: 26.5172
DTLB LOAD TRANSLATION ACCESS:    3705084  HIT:    3042153  MISS:     662931  HIT %:    82.1075  MISS %:    17.8925   MPKI: 26.5172
DTLB PREFETCH  REQUESTED:          0  ISSUED:          0  USEFUL:          0  USELESS:          0
DTLB USEFUL LOAD PREFETCHES:          0 PREFETCH ISSUED TO LOWER LEVEL:          0  ACCURACY: -nan
DTLB TIMELY PREFETCHES:          0 LATE PREFETCHES: 0 DROPPED PREFETCHES: 0
DTLB PREFETCHES SAME FILL-ORIGIN LEVEL: 0 DIFFERENT FILL-ORIGIN LEVEL: 0
DTLB AVERAGE MISS LATENCY: 44.0837 cycles
DTLB RQ	ACCESS:    4306529	FORWARD:          0	MERGED:     592277	TO_CACHE:    3714252

STLB TOTAL     ACCESS:    1045214  HIT:     141740  MISS:     903474  HIT %:    13.5609  MISS %:    86.4391   MPKI: 36.139
STLB LOAD TRANSLATION ACCESS:     662931  HIT:     139698  MISS:     523233  HIT %:    21.0728  MISS %:    78.9272   MPKI: 20.9293
STLB PREFETCH TRANSLATION ACCESS:     382283  HIT:       2042  MISS:     380241  HIT %:   0.534159  MISS %:    99.4658   MPKI: 15.2096
STLB PREFETCH  REQUESTED:     597496  ISSUED:     589258  USEFUL:      42503  USELESS:     337853
STLB USEFUL LOAD PREFETCHES:      42503 PREFETCH ISSUED TO LOWER LEVEL:     509924  ACCURACY: 8.33516
STLB TIMELY PREFETCHES:      42503 LATE PREFETCHES: 12509 DROPPED PREFETCHES: 117174
STLB PREFETCHES SAME FILL-ORIGIN LEVEL: 509924 DIFFERENT FILL-ORIGIN LEVEL: 0
STLB AVERAGE MISS LATENCY: 81.5575 cycles
STLB RQ	ACCESS:     662934	FORWARD:          0	MERGED:          0	TO_CACHE:     662934
STLB PQ	ACCESS:     589258	FORWARD:          0	MERGED:      33167	TO_CACHE:     556091

STLB Hit, L1D data hit: 0
STLB Hit, L2C data hit: 0
STLB Hit, LLC data hit: 0
STLB Hit, LLC data miss: 0
STLB STLB hints to L2: 0
L1D TOTAL     ACCESS:    4288568  HIT:    3083277  MISS:    1205291  HIT %:    71.8953  MISS %:    28.1047   MPKI: 48.2116
L1D LOAD      ACCESS:    3179904  HIT:    2043977  MISS:    1135927  HIT %:    64.2779  MISS %:    35.7221   MPKI: 45.4371
L1D RFO       ACCESS:    1108664  HIT:    1039300  MISS:      69364  HIT %:    93.7435  MISS %:    6.25654   MPKI: 2.77456
L1D PREFETCH  REQUESTED:          0  ISSUED:          0  USEFUL:          0  USELESS:          0
L1D USEFUL LOAD PREFETCHES:          0 PREFETCH ISSUED TO LOWER LEVEL:          0  ACCURACY: -nan
L1D TIMELY PREFETCHES:          0 LATE PREFETCHES: 0 DROPPED PREFETCHES: 0
L1D PREFETCHES SAME FILL-ORIGIN LEVEL: 0 DIFFERENT FILL-ORIGIN LEVEL: 0
L1D AVERAGE MISS LATENCY: 125.078 cycles
L1D RQ	ACCESS:    6163651	FORWARD:          0	MERGED:    2899145	TO_CACHE:    3197863
L1D WQ	ACCESS:    1108674	FORWARD:      66643	MERGED:          8	TO_CACHE:    1108666

L1D UNIQUE REGIONS ACCESSED: 0
L1D REGIONS CONFLICTS: 0
L1D Cross Page Prefetch Requests: 0
L1D Same Page Prefetch Requests: 0
L1D ROI Sum of L1D PQ occupancy: 0
L1D PREFETCHES PUSHED FROM L2C: 0
L1I TOTAL     ACCESS:    4787455  HIT:    4787455  MISS:          0  HIT %:        100  MISS %:          0   MPKI: 0
L1I LOAD      ACCESS:    4787455  HIT:    4787455  MISS:          0  HIT %:        100  MISS %:          0   MPKI: 0
L1I PREFETCH  REQUESTED:          0  ISSUED:          0  USEFUL:          0  USELESS:          0
L1I USEFUL LOAD PREFETCHES:          0 PREFETCH ISSUED TO LOWER LEVEL:          0  ACCURACY: -nan
L1I TIMELY PREFETCHES:          0 LATE PREFETCHES: 0 DROPPED PREFETCHES: 0
L1I PREFETCHES SAME FILL-ORIGIN LEVEL: 0 DIFFERENT FILL-ORIGIN LEVEL: 0
L1I AVERAGE MISS LATENCY: -nan cycles
L1I RQ	ACCESS:    7071257	FORWARD:          0	MERGED:    2283800	TO_CACHE:    4787457

BTB TOTAL     ACCESS:    3283965  HIT:    3283957  MISS:          8  HIT %:    99.9998  MISS %: 0.000243608   MPKI: 0.00032
BTB BRANCH_DIRECT_JUMP	ACCESS:     568311  HIT:     568309  MISS:          2
BTB BRANCH_INDIRECT	ACCESS:          0  HIT:          0  MISS:          0
BTB BRANCH_CONDITIONAL	ACCESS:    1606986  HIT:    1606982  MISS:          4
BTB BRANCH_DIRECT_CALL	ACCESS:     554334  HIT:     554333  MISS:          1
BTB BRANCH_INDIRECT_CALL	ACCESS:          0  HIT:          0  MISS:          0
BTB BRANCH_RETURN	ACCESS:     554334  HIT:     554333  MISS:          1
BTB BRANCH_OTHER ACCESS:          0  HIT:          0  MISS:          0

L2C TOTAL     ACCESS:    2888333  HIT:    1800372  MISS:    1087961  HIT %:    62.3326  MISS %:    37.6674   MPKI: 43.5184
L2C LOAD      ACCESS:    1135927  HIT:     408249  MISS:     727678  HIT %:    35.9397  MISS %:    64.0603   MPKI: 29.1071
L2C DATA LOAD MPKI: 29.1071
L2C INSTRUCTION LOAD MPKI: 0
L2C RFO       ACCESS:      69364  HIT:      37908  MISS:      31456  HIT %:    54.6508  MISS %:    45.3492   MPKI: 1.25824
L2C WRITEBACK ACCESS:     554349  HIT:     554349  MISS:          0  HIT %:        100  MISS %:          0   MPKI: 0
L2C LOAD TRANSLATION ACCESS:     545555  HIT:     407414  MISS:     138141  HIT %:    74.6788  MISS %:    25.3212   MPKI: 5.52564
L2C PREFETCH TRANSLATION ACCESS:     583138  HIT:     392452  MISS:     190686  HIT %:       67.3  MISS %:       32.7   MPKI: 7.62744
L2C PREFETCH  REQUESTED:          0  ISSUED:          0  USEFUL:     142781  USELESS:      48001
L2C USEFUL LOAD PREFETCHES:     142781 PREFETCH ISSUED TO LOWER LEVEL:          0  ACCURACY: inf
L2C TIMELY PREFETCHES:     142781 LATE PREFETCHES: 0 DROPPED PREFETCHES: 0
L2C PREFETCHES SAME FILL-ORIGIN LEVEL: 0 DIFFERENT FILL-ORIGIN LEVEL: 0
L2C AVERAGE MISS LATENCY: 133.085 cycles
L2C RQ	ACCESS:    2333985	FORWARD:          0	MERGED:          0	TO_CACHE:    2333985
L2C WQ	ACCESS:     554349	FORWARD:          0	MERGED:          0	TO_CACHE:     554349

L2C Instructions Evicting Data 0
L2C Translations Evicting Data 193759
L2C Data Evicting Data 565138
L2C Instructions Evicting Instructions 0
L2C Translations Evicting Instructions 0
L2C Data Evicting Instructions 0
L2C Instructions Evicting Translations 0
L2C Translations Evicting Translations 135068
L2C Data Evicting Translations 193996
L2C Dense regions hint from L2: 0
PSCL5 TOTAL     ACCESS:    1020650  HIT:    1020650  MISS:          0  HIT %:        100  MISS %:          0   MPKI: 0
PSCL5 LOAD TRANSLATION ACCESS:     510726  HIT:     510726  MISS:          0  HIT %:        100  MISS %:          0   MPKI: 0
PSCL5 PREFETCH TRANSLATION ACCESS:     509924  HIT:     509924  MISS:          0  HIT %:        100  MISS %:          0   MPKI: 0
PSCL5 PREFETCH  REQUESTED:          0  ISSUED:          0  USEFUL:          0  USELESS:          0
PSCL5 USEFUL LOAD PREFETCHES:          0 PREFETCH ISSUED TO LOWER LEVEL:          0  ACCURACY: -nan
PSCL5 TIMELY PREFETCHES:          0 LATE PREFETCHES: 0 DROPPED PREFETCHES: 0
PSCL5 PREFETCHES SAME FILL-ORIGIN LEVEL: 0 DIFFERENT FILL-ORIGIN LEVEL: 0

PSCL4 TOTAL     ACCESS:    1020650  HIT:    1020650  MISS:          0  HIT %:        100  MISS %:          0   MPKI: 0
PSCL4 LOAD TRANSLATION ACCESS:     510726  HIT:     510726  MISS:          0  HIT %:        100  MISS %:          0   MPKI: 0
PSCL4 PREFETCH TRANSLATION ACCESS:     509924  HIT:     509924  MISS:          0  HIT %:        100  MISS %:          0   MPKI: 0
PSCL4 PREFETCH  REQUESTED:          0  ISSUED:          0  USEFUL:          0  USELESS:          0
PSCL4 USEFUL LOAD PREFETCHES:          0 PREFETCH ISSUED TO LOWER LEVEL:          0  ACCURACY: -nan
PSCL4 TIMELY PREFETCHES:          0 LATE PREFETCHES: 0 DROPPED PREFETCHES: 0
PSCL4 PREFETCHES SAME FILL-ORIGIN LEVEL: 0 DIFFERENT FILL-ORIGIN LEVEL: 0

PSCL3 TOTAL     ACCESS:    1020355  HIT:    1020355  MISS:          0  HIT %:        100  MISS %:          0   MPKI: 0
PSCL3 LOAD TRANSLATION ACCESS:     510726  HIT:     510726  MISS:          0  HIT %:        100  MISS %:          0   MPKI: 0
PSCL3 PREFETCH TRANSLATION ACCESS:     509629  HIT:     509629  MISS:          0  HIT %:        100  MISS %:          0   MPKI: 0
PSCL3 PREFETCH  REQUESTED:          0  ISSUED:          0  USEFUL:          0  USELESS:          0
PSCL3 USEFUL LOAD PREFETCHES:          0 PREFETCH ISSUED TO LOWER LEVEL:          0  ACCURACY: -nan
PSCL3 TIMELY PREFETCHES:          0 LATE PREFETCHES: 0 DROPPED PREFETCHES: 0
PSCL3 PREFETCHES SAME FILL-ORIGIN LEVEL: 0 DIFFERENT FILL-ORIGIN LEVEL: 0

PSCL2 TOTAL     ACCESS:     989223  HIT:     910881  MISS:      78342  HIT %:    92.0805  MISS %:    7.91955   MPKI: 3.13368
PSCL2 LOAD TRANSLATION ACCESS:     554238  HIT:     475896  MISS:      78342  HIT %:    85.8649  MISS %:    14.1351   MPKI: 3.13368
PSCL2 PREFETCH TRANSLATION ACCESS:     434985  HIT:     434985  MISS:          0  HIT %:        100  MISS %:          0   MPKI: 0
PSCL2 PREFETCH  REQUESTED:          0  ISSUED:          0  USEFUL:          0  USELESS:          0
PSCL2 USEFUL LOAD PREFETCHES:          0 PREFETCH ISSUED TO LOWER LEVEL:          0  ACCURACY: -nan
PSCL2 TIMELY PREFETCHES:          0 LATE PREFETCHES: 0 DROPPED PREFETCHES: 0
PSCL2 PREFETCHES SAME FILL-ORIGIN LEVEL: 0 DIFFERENT FILL-ORIGIN LEVEL: 0

LLC TOTAL     ACCESS:    1642597  HIT:     986569  MISS:     656028  HIT %:    60.0615  MISS %:    39.9385   MPKI: 26.2411
LLC LOAD      ACCESS:     727678  HIT:      86171  MISS:     641507  HIT %:    11.8419  MISS %:    88.1581   MPKI: 25.6603
LLC RFO       ACCESS:      31456  HIT:      31452  MISS:          4  HIT %:    99.9873  MISS %:  0.0127162   MPKI: 0.00016
LLC WRITEBACK ACCESS:     554636  HIT:     554636  MISS:          0  HIT %:        100  MISS %:          0   MPKI: 0
LLC LOAD TRANSLATION ACCESS:     138141  HIT:     135061  MISS:       3080  HIT %:    97.7704  MISS %:    2.22961   MPKI: 0.1232
LLC PREFETCH TRANSLATION ACCESS:     190686  HIT:     179249  MISS:      11437  HIT %:    94.0022  MISS %:    5.99782   MPKI: 0.45748
LLC PREFETCH  REQUESTED:          0  ISSUED:          0  USEFUL:       7299  USELESS:       4147
LLC USEFUL LOAD PREFETCHES:       7299 PREFETCH ISSUED TO LOWER LEVEL:          0  ACCURACY: inf
LLC TIMELY PREFETCHES:       7299 LATE PREFETCHES: 0 DROPPED PREFETCHES: 0
LLC PREFETCHES SAME FILL-ORIGIN LEVEL: 0 DIFFERENT FILL-ORIGIN LEVEL: 0
LLC AVERAGE MISS LATENCY: 170.793 cycles
LLC RQ	ACCESS:    1087962	FORWARD:          0	MERGED:          0	TO_CACHE:    1087962
LLC WQ	ACCESS:     554636	FORWARD:          0	MERGED:          0	TO_CACHE:     554636

LLC Dense regions hint to LLC: 0

RAW hits: 486878
Loads Generated: 6650532
Loads sent to L1D: 6163651
Stores Generated: 1108670
Stores sent to L1D: 1108674
Major fault: 0 Minor fault: 23115
Allocated PAGES: 23115
CPU 0 STLB arbitrary stride prefetcher final stats
Degree: 4

DRAM Statistics
 CHANNEL 0
 RQ ROW_BUFFER_HIT:       1045  ROW_BUFFER_MISS:     654983
 DBUS_CONGESTED:          4
 WQ ROW_BUFFER_HIT:     234247  ROW_BUFFER_MISS:     319884  FULL:          0

 AVG_CONGESTED_CYCLE: 5
 All warmup complete: 2
Channel 0 Bank busy for read cycles: 0
Channel 0 Bank busy for write cycles: 0
Channel 0
Rank 0
0banks busy for read cycles: 2045150
0banks busy for write cycles: 45532
1banks busy for read cycles: 19588431
1banks busy for write cycles: 3740418
2banks busy for read cycles: 13721310
2banks busy for write cycles: 5683131
3banks busy for read cycles: 11707949
3banks busy for write cycles: 8814738
4banks busy for read cycles: 3946557
4banks busy for write cycles: 8355750
5banks busy for read cycles: 71664
5banks busy for write cycles: 3984913
6banks busy for read cycles: 217
6banks busy for write cycles: 1824065
7banks busy for read cycles: 0
7banks busy for write cycles: 931771
8banks busy for read cycles: 0
8banks busy for write cycles: 693243

CPU 0 Branch Prediction Accuracy: 99.9685% MPKI: 0.04912 Average ROB Occupancy at Mispredict: 155.687
Branch types
NOT_BRANCH: 21105652 84.4226%
BRANCH_DIRECT_JUMP: 568311 2.27324%
BRANCH_INDIRECT: 0 0%
BRANCH_CONDITIONAL: 2217337 8.86935%
BRANCH_DIRECT_CALL: 554334 2.21734%
BRANCH_INDIRECT_CALL: 0 0%
BRANCH_RETURN: 554334 2.21734%
BRANCH_OTHER: 0 0%

DRAM PAGES: 1048576
Allocated PAGES: 23115
