
*** ChampSim Multicore Out-of-Order Simulator ***

Warmup Instructions: 25000000
Simulation Instructions: 25000000
Number of CPUs: 1
LLC sets: 2048
LLC ways: 16
Off-chip DRAM Size: 4096 MB Channels: 1 Width: 64-bit Data Rate: 6400 MT/s
CPU 0 runs ./traces/trace3.champsimtrace.xz
.xz
CPU 0 Bimodal branch predictor
BTB has LRU replacement policy
ITLB has LRU replacement policy
DTLB has LRU replacement policy
STLB has LRU replacement policy
L1I has LRU replacement policy
CPU 0 L1D IP-based stride prefetcher
L1D has LRU replacement policy
L2C has LRU replacement policy
LLC has LRU replacement policy
Heartbeat CPU 0 instructions: 10000001 cycles: 3749923 heartbeat IPC: 2.66672 cumulative IPC: 2.66672 (Simulation time: 0 hr 0 min 21 sec) 
Heartbeat CPU 0 instructions: 20000000 cycles: 7469454 heartbeat IPC: 2.68851 cumulative IPC: 2.67757 (Simulation time: 0 hr 0 min 47 sec) 

Warmup complete CPU 0 instructions: 25000004 cycles: 9359845 (Simulation time: 0 hr 1 min 3 sec) 

Heartbeat CPU 0 instructions: 30000001 cycles: 36682814 heartbeat IPC: 0.342309 cumulative IPC: 0.182996 (Simulation time: 0 hr 1 min 29 sec) 
Heartbeat CPU 0 instructions: 40000001 cycles: 91902594 heartbeat IPC: 0.181095 cumulative IPC: 0.181724 (Simulation time: 0 hr 2 min 21 sec) 
Heartbeat CPU 0 instructions: 50000000 cycles: 150393290 heartbeat IPC: 0.170967 cumulative IPC: 0.177263 (Simulation time: 0 hr 3 min 14 sec) 
Finished CPU 0 instructions: 25000000 cycles: 141033447 cumulative IPC: 0.177263 (Simulation time: 0 hr 3 min 14 sec) 

ChampSim completed all CPUs

Region of Interest Statistics

CPU 0 cumulative IPC: 0.177263 instructions: 25000000 cycles: 141033447
ITLB TOTAL     ACCESS:    4031276  HIT:    4031276  MISS:          0  HIT %:        100  MISS %:          0   MPKI: 0
ITLB LOAD TRANSLATION ACCESS:    4031276  HIT:    4031276  MISS:          0  HIT %:        100  MISS %:          0   MPKI: 0
ITLB PREFETCH  REQUESTED:          0  ISSUED:          0  USEFUL:          0  USELESS:          0
ITLB USEFUL LOAD PREFETCHES:          0 PREFETCH ISSUED TO LOWER LEVEL:          0  ACCURACY: -nan
ITLB TIMELY PREFETCHES:          0 LATE PREFETCHES: 0 DROPPED PREFETCHES: 0
ITLB PREFETCHES SAME FILL-ORIGIN LEVEL: 0 DIFFERENT FILL-ORIGIN LEVEL: 0
ITLB AVERAGE MISS LATENCY: -nan cycles
ITLB RQ	ACCESS:    4082595	FORWARD:          0	MERGED:      51320	TO_CACHE:    4031275

DTLB TOTAL     ACCESS:    5220956  HIT:    3017184  MISS:    2203772  HIT %:    57.7899  MISS %:    42.2101   MPKI: 88.1509
DTLB LOAD TRANSLATION ACCESS:    5220956  HIT:    3017184  MISS:    2203772  HIT %:    57.7899  MISS %:    42.2101   MPKI: 88.1509
DTLB PREFETCH  REQUESTED:          0  ISSUED:          0  USEFUL:          0  USELESS:          0
DTLB USEFUL LOAD PREFETCHES:          0 PREFETCH ISSUED TO LOWER LEVEL:          0  ACCURACY: -nan
DTLB TIMELY PREFETCHES:          0 LATE PREFETCHES: 0 DROPPED PREFETCHES: 0
DTLB PREFETCHES SAME FILL-ORIGIN LEVEL: 0 DIFFERENT FILL-ORIGIN LEVEL: 0
DTLB AVERAGE MISS LATENCY: 11.2248 cycles
DTLB RQ	ACCESS:    5749476	FORWARD:          0	MERGED:     493966	TO_CACHE:    5255510

STLB TOTAL     ACCESS:    3588963  HIT:    3559921  MISS:      29042  HIT %:    99.1908  MISS %:   0.809203   MPKI: 1.16168
STLB LOAD TRANSLATION ACCESS:    2203772  HIT:    2174730  MISS:      29042  HIT %:    98.6822  MISS %:    1.31783   MPKI: 1.16168
STLB TRANSLATION FROM L1D PREFETCHER ACCESS:    1385191  HIT:    1385191  MISS:          0  HIT %:        100  MISS %:          0   MPKI: 0
STLB PREFETCH  REQUESTED:          0  ISSUED:          0  USEFUL:          0  USELESS:          0
STLB USEFUL LOAD PREFETCHES:          0 PREFETCH ISSUED TO LOWER LEVEL:          0  ACCURACY: -nan
STLB TIMELY PREFETCHES:          0 LATE PREFETCHES: 0 DROPPED PREFETCHES: 0
STLB PREFETCHES SAME FILL-ORIGIN LEVEL: 0 DIFFERENT FILL-ORIGIN LEVEL: 0
STLB AVERAGE MISS LATENCY: 133.954 cycles
STLB RQ	ACCESS:    7613702	FORWARD:          0	MERGED:    4024739	TO_CACHE:    3588963

STLB Hit, L1D data hit: 0
STLB Hit, L2C data hit: 0
STLB Hit, LLC data hit: 0
STLB Hit, LLC data miss: 0
STLB STLB hints to L2: 0
L1D TOTAL     ACCESS:    9393214  HIT:    5495229  MISS:    3897985  HIT %:    58.5021  MISS %:    41.4979   MPKI: 155.919
L1D LOAD      ACCESS:    5267812  HIT:    2392097  MISS:    2875715  HIT %:    45.4097  MISS %:    54.5903   MPKI: 115.029
L1D RFO       ACCESS:     426017  HIT:     419002  MISS:       7015  HIT %:    98.3534  MISS %:    1.64665   MPKI: 0.2806
L1D PREFETCH  ACCESS:    3699385  HIT:    2684130  MISS:    1015255  HIT %:    72.5561  MISS %:    27.4439   MPKI: 40.6102
AGUS PREFETCH L1 MISS: 0
L1D PREFETCH  REQUESTED:   14393510  ISSUED:   14391591  USEFUL:     999724  USELESS:      15552
L1D USEFUL LOAD PREFETCHES:     999724 PREFETCH ISSUED TO LOWER LEVEL:    1275193  ACCURACY: 78.3979
L1D TIMELY PREFETCHES:     999724 LATE PREFETCHES: 259933 DROPPED PREFETCHES: 0
L1D PREFETCHES SAME FILL-ORIGIN LEVEL: 1275193 DIFFERENT FILL-ORIGIN LEVEL: 0
L1D AVERAGE MISS LATENCY: 116.626 cycles
L1D RQ	ACCESS:    8951672	FORWARD:          0	MERGED:    3580432	TO_CACHE:    5306336
L1D WQ	ACCESS:     459661	FORWARD:      72375	MERGED:      16521	TO_CACHE:     443140
L1D PQ	ACCESS:    8981661	FORWARD:          0	MERGED:    3564260	TO_CACHE:    5409930

L1D UNIQUE REGIONS ACCESSED: 0
L1D REGIONS CONFLICTS: 0
L1D Cross Page Prefetch Requests: 0
L1D Same Page Prefetch Requests: 20999229
L1D ROI Sum of L1D PQ occupancy: 73656255
L1D PREFETCHES PUSHED FROM L2C: 0
L1I TOTAL     ACCESS:    4082596  HIT:    4082596  MISS:          0  HIT %:        100  MISS %:          0   MPKI: 0
L1I LOAD      ACCESS:    4082596  HIT:    4082596  MISS:          0  HIT %:        100  MISS %:          0   MPKI: 0
L1I PREFETCH  REQUESTED:          0  ISSUED:          0  USEFUL:          0  USELESS:          0
L1I USEFUL LOAD PREFETCHES:          0 PREFETCH ISSUED TO LOWER LEVEL:          0  ACCURACY: -nan
L1I TIMELY PREFETCHES:          0 LATE PREFETCHES: 0 DROPPED PREFETCHES: 0
L1I PREFETCHES SAME FILL-ORIGIN LEVEL: 0 DIFFERENT FILL-ORIGIN LEVEL: 0
L1I AVERAGE MISS LATENCY: -nan cycles
L1I RQ	ACCESS:    5478942	FORWARD:          0	MERGED:    1396347	TO_CACHE:    4082595

BTB TOTAL     ACCESS:    7381233  HIT:    7359090  MISS:      22143  HIT %:       99.7  MISS %:   0.299991   MPKI: 0.88572
BTB BRANCH_DIRECT_JUMP	ACCESS:     954613  HIT:     954578  MISS:         35
BTB BRANCH_INDIRECT	ACCESS:          0  HIT:          0  MISS:          0
BTB BRANCH_CONDITIONAL	ACCESS:    6254608  HIT:    6254529  MISS:         79
BTB BRANCH_DIRECT_CALL	ACCESS:      79755  HIT:      79739  MISS:         16
BTB BRANCH_INDIRECT_CALL	ACCESS:       6250  HIT:       6242  MISS:          8
BTB BRANCH_RETURN	ACCESS:      86007  HIT:      64002  MISS:      22005
BTB BRANCH_OTHER ACCESS:          0  HIT:          0  MISS:          0

L2C TOTAL     ACCESS:    4006936  HIT:     511285  MISS:    3495651  HIT %:      12.76  MISS %:      87.24   MPKI: 139.826
L2C LOAD      ACCESS:    2615779  HIT:     409496  MISS:    2206283  HIT %:    15.6548  MISS %:    84.3452   MPKI: 88.2513
L2C DATA LOAD MPKI: 88.2513
L2C INSTRUCTION LOAD MPKI: 0
L2C RFO       ACCESS:       7015  HIT:        777  MISS:       6238  HIT %:    11.0763  MISS %:    88.9237   MPKI: 0.24952
L2C PREFETCH  ACCESS:    1275188  HIT:       1143  MISS:    1274045  HIT %:  0.0896338  MISS %:    99.9104   MPKI: 50.9618
AGUS PREFETCH L1 MISS: 0
L2C DATA PREFETCH MPKI: 50.9618
L2C INSTRUCTION PREFETCH MPKI: 0
L2C WRITEBACK ACCESS:      79749  HIT:      79749  MISS:          0  HIT %:        100  MISS %:          0   MPKI: 0
L2C LOAD TRANSLATION ACCESS:      29205  HIT:      20120  MISS:       9085  HIT %:    68.8923  MISS %:    31.1077   MPKI: 0.3634
L2C PREFETCH  REQUESTED:          0  ISSUED:          0  USEFUL:       1695  USELESS:    1272567
L2C USEFUL LOAD PREFETCHES:       1695 PREFETCH ISSUED TO LOWER LEVEL:    1274050  ACCURACY: 0.13304
L2C TIMELY PREFETCHES:       1695 LATE PREFETCHES: 0 DROPPED PREFETCHES: 0
L2C PREFETCHES SAME FILL-ORIGIN LEVEL: 0 DIFFERENT FILL-ORIGIN LEVEL: 0
L2C AVERAGE MISS LATENCY: 113.168 cycles
L2C RQ	ACCESS:    2652004	FORWARD:          0	MERGED:          0	TO_CACHE:    2652001
L2C WQ	ACCESS:      79749	FORWARD:          3	MERGED:          0	TO_CACHE:      79749
L2C PQ	ACCESS:    1275193	FORWARD:          0	MERGED:          0	TO_CACHE:    1275193

L2C Instructions Evicting Data 0
L2C Translations Evicting Data 9060
L2C Data Evicting Data 3477523
L2C Instructions Evicting Instructions 0
L2C Translations Evicting Instructions 0
L2C Data Evicting Instructions 0
L2C Instructions Evicting Translations 0
L2C Translations Evicting Translations 25
L2C Data Evicting Translations 9043
L2C Dense regions hint from L2: 0
PSCL5 TOTAL     ACCESS:      29042  HIT:      29042  MISS:          0  HIT %:        100  MISS %:          0   MPKI: 0
PSCL5 LOAD TRANSLATION ACCESS:      29042  HIT:      29042  MISS:          0  HIT %:        100  MISS %:          0   MPKI: 0
PSCL5 PREFETCH  REQUESTED:          0  ISSUED:          0  USEFUL:          0  USELESS:          0
PSCL5 USEFUL LOAD PREFETCHES:          0 PREFETCH ISSUED TO LOWER LEVEL:          0  ACCURACY: -nan
PSCL5 TIMELY PREFETCHES:          0 LATE PREFETCHES: 0 DROPPED PREFETCHES: 0
PSCL5 PREFETCHES SAME FILL-ORIGIN LEVEL: 0 DIFFERENT FILL-ORIGIN LEVEL: 0

PSCL4 TOTAL     ACCESS:      29042  HIT:      29042  MISS:          0  HIT %:        100  MISS %:          0   MPKI: 0
PSCL4 LOAD TRANSLATION ACCESS:      29042  HIT:      29042  MISS:          0  HIT %:        100  MISS %:          0   MPKI: 0
PSCL4 PREFETCH  REQUESTED:          0  ISSUED:          0  USEFUL:          0  USELESS:          0
PSCL4 USEFUL LOAD PREFETCHES:          0 PREFETCH ISSUED TO LOWER LEVEL:          0  ACCURACY: -nan
PSCL4 TIMELY PREFETCHES:          0 LATE PREFETCHES: 0 DROPPED PREFETCHES: 0
PSCL4 PREFETCHES SAME FILL-ORIGIN LEVEL: 0 DIFFERENT FILL-ORIGIN LEVEL: 0

PSCL3 TOTAL     ACCESS:      29042  HIT:      29042  MISS:          0  HIT %:        100  MISS %:          0   MPKI: 0
PSCL3 LOAD TRANSLATION ACCESS:      29042  HIT:      29042  MISS:          0  HIT %:        100  MISS %:          0   MPKI: 0
PSCL3 PREFETCH  REQUESTED:          0  ISSUED:          0  USEFUL:          0  USELESS:          0
PSCL3 USEFUL LOAD PREFETCHES:          0 PREFETCH ISSUED TO LOWER LEVEL:          0  ACCURACY: -nan
PSCL3 TIMELY PREFETCHES:          0 LATE PREFETCHES: 0 DROPPED PREFETCHES: 0
PSCL3 PREFETCHES SAME FILL-ORIGIN LEVEL: 0 DIFFERENT FILL-ORIGIN LEVEL: 0

PSCL2 TOTAL     ACCESS:      29042  HIT:      28743  MISS:        299  HIT %:    98.9705  MISS %:    1.02954   MPKI: 0.01196
PSCL2 LOAD TRANSLATION ACCESS:      29042  HIT:      28743  MISS:        299  HIT %:    98.9705  MISS %:    1.02954   MPKI: 0.01196
PSCL2 PREFETCH  REQUESTED:          0  ISSUED:          0  USEFUL:          0  USELESS:          0
PSCL2 USEFUL LOAD PREFETCHES:          0 PREFETCH ISSUED TO LOWER LEVEL:          0  ACCURACY: -nan
PSCL2 TIMELY PREFETCHES:          0 LATE PREFETCHES: 0 DROPPED PREFETCHES: 0
PSCL2 PREFETCHES SAME FILL-ORIGIN LEVEL: 0 DIFFERENT FILL-ORIGIN LEVEL: 0

LLC TOTAL     ACCESS:    3571149  HIT:    1570513  MISS:    2000636  HIT %:    43.9778  MISS %:    56.0222   MPKI: 80.0254
LLC LOAD      ACCESS:    2206282  HIT:    1474254  MISS:     732028  HIT %:    66.8207  MISS %:    33.1793   MPKI: 29.2811
LLC RFO       ACCESS:       6238  HIT:       5238  MISS:       1000  HIT %:    83.9692  MISS %:    16.0308   MPKI: 0.04
LLC PREFETCH  ACCESS:    1274045  HIT:      11642  MISS:    1262403  HIT %:   0.913782  MISS %:    99.0862   MPKI: 50.4961
AGUS PREFETCH L1 MISS: 0
LLC WRITEBACK ACCESS:      75499  HIT:      75377  MISS:        122  HIT %:    99.8384  MISS %:   0.161592   MPKI: 0.00488
LLC LOAD TRANSLATION ACCESS:       9085  HIT:       4002  MISS:       5083  HIT %:    44.0506  MISS %:    55.9494   MPKI: 0.20332
LLC PREFETCH  REQUESTED:          0  ISSUED:          0  USEFUL:        781  USELESS:    1262517
LLC USEFUL LOAD PREFETCHES:        781 PREFETCH ISSUED TO LOWER LEVEL:    1262408  ACCURACY: 0.0618659
LLC TIMELY PREFETCHES:        781 LATE PREFETCHES: 0 DROPPED PREFETCHES: 0
LLC PREFETCHES SAME FILL-ORIGIN LEVEL: 0 DIFFERENT FILL-ORIGIN LEVEL: 0
LLC AVERAGE MISS LATENCY: 144.723 cycles
LLC RQ	ACCESS:    2221607	FORWARD:          0	MERGED:          0	TO_CACHE:    2221606
LLC WQ	ACCESS:      75499	FORWARD:          1	MERGED:          0	TO_CACHE:      75499
LLC PQ	ACCESS:    1274050	FORWARD:          0	MERGED:          0	TO_CACHE:    1274050

LLC Dense regions hint to LLC: 0

RAW hits: 62655
Loads Generated: 9014327
Loads sent to L1D: 8951672
Stores Generated: 459660
Stores sent to L1D: 459661
Major fault: 0 Minor fault: 44120
Allocated PAGES: 44120
CPU 0 L1D IP-based stride prefetcher final stats
Degree: 5

DRAM Statistics
 CHANNEL 0
 RQ ROW_BUFFER_HIT:     939971  ROW_BUFFER_MISS:    1060531
 DBUS_CONGESTED:        363
 WQ ROW_BUFFER_HIT:      10353  ROW_BUFFER_MISS:      29347  FULL:          0

 AVG_CONGESTED_CYCLE: 4
 All warmup complete: 2
Channel 0 Bank busy for read cycles: 0
Channel 0 Bank busy for write cycles: 0
Channel 0
Rank 0
0banks busy for read cycles: 51052619
0banks busy for write cycles: 14721
1banks busy for read cycles: 35696248
1banks busy for write cycles: 2765183
2banks busy for read cycles: 19513680
2banks busy for write cycles: 539145
3banks busy for read cycles: 11443720
3banks busy for write cycles: 234593
4banks busy for read cycles: 7761251
4banks busy for write cycles: 142859
5banks busy for read cycles: 5357101
5banks busy for write cycles: 111507
6banks busy for read cycles: 3298538
6banks busy for write cycles: 109385
7banks busy for read cycles: 1707318
7banks busy for write cycles: 126707
8banks busy for read cycles: 935044
8banks busy for write cycles: 223829

CPU 0 Branch Prediction Accuracy: 96.3142% MPKI: 11.2642 Average ROB Occupancy at Mispredict: 44.9695
Branch types
NOT_BRANCH: 17359361 69.4374%
BRANCH_DIRECT_JUMP: 954613 3.81845%
BRANCH_INDIRECT: 0 0%
BRANCH_CONDITIONAL: 6513665 26.0547%
BRANCH_DIRECT_CALL: 79755 0.31902%
BRANCH_INDIRECT_CALL: 6250 0.025%
BRANCH_RETURN: 86007 0.344028%
BRANCH_OTHER: 0 0%

DRAM PAGES: 1048576
Allocated PAGES: 44120
