
*** ChampSim Multicore Out-of-Order Simulator ***

Warmup Instructions: 25000000
Simulation Instructions: 25000000
Number of CPUs: 1
LLC sets: 2048
LLC ways: 16
Off-chip DRAM Size: 4096 MB Channels: 1 Width: 64-bit Data Rate: 6400 MT/s
CPU 0 runs ./traces/trace3.champsimtrace.xz
.xz
CPU 0 Bimodal branch predictor
BTB has LRU replacement policy
ITLB has LRU replacement policy
DTLB has LRU replacement policy
STLB has LRU replacement policy
L1I has LRU replacement policy
CPU 0 L1D Optimized prefetcher
L1D has LRU replacement policy
L2C has LRU replacement policy
LLC has LRU replacement policy
Heartbeat CPU 0 instructions: 10000001 cycles: 3773639 heartbeat IPC: 2.64996 cumulative IPC: 2.64996 (Simulation time: 0 hr 0 min 39 sec) 
Heartbeat CPU 0 instructions: 20000000 cycles: 7519176 heartbeat IPC: 2.66984 cumulative IPC: 2.65987 (Simulation time: 0 hr 1 min 15 sec) 

Warmup complete CPU 0 instructions: 25000004 cycles: 9422659 (Simulation time: 0 hr 1 min 33 sec) 

1062 845
3045 2411
7527 2819
 ----------------------------------
0.795669 0.789713 0.0910308
prefetcehter = 1
 ----------------------------------
Heartbeat CPU 0 instructions: 30000001 cycles: 36808251 heartbeat IPC: 0.341424 cumulative IPC: 0.182578 (Simulation time: 0 hr 2 min 6 sec) 
Heartbeat CPU 0 instructions: 40000001 cycles: 92084874 heartbeat IPC: 0.180908 cumulative IPC: 0.181461 (Simulation time: 0 hr 3 min 10 sec) 
Heartbeat CPU 0 instructions: 50000000 cycles: 150656048 heartbeat IPC: 0.170732 cumulative IPC: 0.177012 (Simulation time: 0 hr 3 min 56 sec) 
Finished CPU 0 instructions: 25000000 cycles: 141233391 cumulative IPC: 0.177012 (Simulation time: 0 hr 3 min 56 sec) 

ChampSim completed all CPUs

Region of Interest Statistics

CPU 0 cumulative IPC: 0.177012 instructions: 25000000 cycles: 141233391
ITLB TOTAL     ACCESS:    4031602  HIT:    4031602  MISS:          0  HIT %:        100  MISS %:          0   MPKI: 0
ITLB LOAD TRANSLATION ACCESS:    4031602  HIT:    4031602  MISS:          0  HIT %:        100  MISS %:          0   MPKI: 0
ITLB PREFETCH  REQUESTED:          0  ISSUED:          0  USEFUL:          0  USELESS:          0
ITLB USEFUL LOAD PREFETCHES:          0 PREFETCH ISSUED TO LOWER LEVEL:          0  ACCURACY: -nan
ITLB TIMELY PREFETCHES:          0 LATE PREFETCHES: 0 DROPPED PREFETCHES: 0
ITLB PREFETCHES SAME FILL-ORIGIN LEVEL: 0 DIFFERENT FILL-ORIGIN LEVEL: 0
ITLB AVERAGE MISS LATENCY: -nan cycles
ITLB RQ	ACCESS:    4082885	FORWARD:          0	MERGED:      51284	TO_CACHE:    4031601

DTLB TOTAL     ACCESS:    5220878  HIT:    3017181  MISS:    2203697  HIT %:    57.7907  MISS %:    42.2093   MPKI: 88.1479
DTLB LOAD TRANSLATION ACCESS:    5220878  HIT:    3017181  MISS:    2203697  HIT %:    57.7907  MISS %:    42.2093   MPKI: 88.1479
DTLB PREFETCH  REQUESTED:          0  ISSUED:          0  USEFUL:          0  USELESS:          0
DTLB USEFUL LOAD PREFETCHES:          0 PREFETCH ISSUED TO LOWER LEVEL:          0  ACCURACY: -nan
DTLB TIMELY PREFETCHES:          0 LATE PREFETCHES: 0 DROPPED PREFETCHES: 0
DTLB PREFETCHES SAME FILL-ORIGIN LEVEL: 0 DIFFERENT FILL-ORIGIN LEVEL: 0
DTLB AVERAGE MISS LATENCY: 11.2208 cycles
DTLB RQ	ACCESS:    5749421	FORWARD:          0	MERGED:     494012	TO_CACHE:    5255409

STLB TOTAL     ACCESS:    3589658  HIT:    3560618  MISS:      29040  HIT %:     99.191  MISS %:   0.808991   MPKI: 1.1616
STLB LOAD TRANSLATION ACCESS:    2203697  HIT:    2174657  MISS:      29040  HIT %:    98.6822  MISS %:    1.31779   MPKI: 1.1616
STLB TRANSLATION FROM L1D PREFETCHER ACCESS:    1385961  HIT:    1385961  MISS:          0  HIT %:        100  MISS %:          0   MPKI: 0
STLB PREFETCH  REQUESTED:          0  ISSUED:          0  USEFUL:          0  USELESS:          0
STLB USEFUL LOAD PREFETCHES:          0 PREFETCH ISSUED TO LOWER LEVEL:          0  ACCURACY: -nan
STLB TIMELY PREFETCHES:          0 LATE PREFETCHES: 0 DROPPED PREFETCHES: 0
STLB PREFETCHES SAME FILL-ORIGIN LEVEL: 0 DIFFERENT FILL-ORIGIN LEVEL: 0
STLB AVERAGE MISS LATENCY: 133.877 cycles
STLB RQ	ACCESS:    7616208	FORWARD:          0	MERGED:    4026550	TO_CACHE:    3589658

STLB Hit, L1D data hit: 0
STLB Hit, L2C data hit: 0
STLB Hit, LLC data hit: 0
STLB Hit, LLC data miss: 0
STLB STLB hints to L2: 0
L1D TOTAL     ACCESS:    9397016  HIT:    5495142  MISS:    3901874  HIT %:    58.4775  MISS %:    41.5225   MPKI: 156.075
L1D LOAD      ACCESS:    5267689  HIT:    2391806  MISS:    2875883  HIT %:    45.4052  MISS %:    54.5948   MPKI: 115.035
L1D RFO       ACCESS:     425976  HIT:     418962  MISS:       7014  HIT %:    98.3534  MISS %:    1.64657   MPKI: 0.28056
L1D PREFETCH  ACCESS:    3703351  HIT:    2684374  MISS:    1018977  HIT %:     72.485  MISS %:     27.515   MPKI: 40.7591
AGUS PREFETCH L1 MISS: 0
L1D PREFETCH  REQUESTED:   14402240  ISSUED:   14397460  USEFUL:     999577  USELESS:      19394
L1D USEFUL LOAD PREFETCHES:     999577 PREFETCH ISSUED TO LOWER LEVEL:    1278810  ACCURACY: 78.1646
L1D TIMELY PREFETCHES:     999577 LATE PREFETCHES: 259833 DROPPED PREFETCHES: 0
L1D PREFETCHES SAME FILL-ORIGIN LEVEL: 1278810 DIFFERENT FILL-ORIGIN LEVEL: 0
L1D AVERAGE MISS LATENCY: 116.961 cycles
L1D RQ	ACCESS:    8951600	FORWARD:          0	MERGED:    3580456	TO_CACHE:    5306299
L1D WQ	ACCESS:     459661	FORWARD:      72316	MERGED:      16539	TO_CACHE:     443122
L1D PQ	ACCESS:    8984949	FORWARD:          0	MERGED:    3564967	TO_CACHE:    5412511

L1D UNIQUE REGIONS ACCESSED: 0
L1D REGIONS CONFLICTS: 0
L1D Cross Page Prefetch Requests: 0
L1D Same Page Prefetch Requests: 8984949
L1D ROI Sum of L1D PQ occupancy: 74222830
L1D PREFETCHES PUSHED FROM L2C: 0
L1I TOTAL     ACCESS:    4082886  HIT:    4082886  MISS:          0  HIT %:        100  MISS %:          0   MPKI: 0
L1I LOAD      ACCESS:    4082886  HIT:    4082886  MISS:          0  HIT %:        100  MISS %:          0   MPKI: 0
L1I PREFETCH  REQUESTED:          0  ISSUED:          0  USEFUL:          0  USELESS:          0
L1I USEFUL LOAD PREFETCHES:          0 PREFETCH ISSUED TO LOWER LEVEL:          0  ACCURACY: -nan
L1I TIMELY PREFETCHES:          0 LATE PREFETCHES: 0 DROPPED PREFETCHES: 0
L1I PREFETCHES SAME FILL-ORIGIN LEVEL: 0 DIFFERENT FILL-ORIGIN LEVEL: 0
L1I AVERAGE MISS LATENCY: -nan cycles
L1I RQ	ACCESS:    5479267	FORWARD:          0	MERGED:    1396382	TO_CACHE:    4082885

BTB TOTAL     ACCESS:    7381233  HIT:    7359090  MISS:      22143  HIT %:       99.7  MISS %:   0.299991   MPKI: 0.88572
BTB BRANCH_DIRECT_JUMP	ACCESS:     954613  HIT:     954578  MISS:         35
BTB BRANCH_INDIRECT	ACCESS:          0  HIT:          0  MISS:          0
BTB BRANCH_CONDITIONAL	ACCESS:    6254608  HIT:    6254529  MISS:         79
BTB BRANCH_DIRECT_CALL	ACCESS:      79755  HIT:      79739  MISS:         16
BTB BRANCH_INDIRECT_CALL	ACCESS:       6250  HIT:       6242  MISS:          8
BTB BRANCH_RETURN	ACCESS:      86007  HIT:      64002  MISS:      22005
BTB BRANCH_OTHER ACCESS:          0  HIT:          0  MISS:          0

L2C TOTAL     ACCESS:    4010826  HIT:     511076  MISS:    3499750  HIT %:    12.7424  MISS %:    87.2576   MPKI: 139.99
L2C LOAD      ACCESS:    2616047  HIT:     409073  MISS:    2206974  HIT %:    15.6371  MISS %:    84.3629   MPKI: 88.279
L2C DATA LOAD MPKI: 88.279
L2C INSTRUCTION LOAD MPKI: 0
L2C RFO       ACCESS:       7014  HIT:        752  MISS:       6262  HIT %:    10.7214  MISS %:    89.2786   MPKI: 0.25048
L2C PREFETCH  ACCESS:    1278810  HIT:       1354  MISS:    1277456  HIT %:    0.10588  MISS %:    99.8941   MPKI: 51.0982
AGUS PREFETCH L1 MISS: 0
L2C DATA PREFETCH MPKI: 51.0982
L2C INSTRUCTION PREFETCH MPKI: 0
L2C WRITEBACK ACCESS:      79752  HIT:      79752  MISS:          0  HIT %:        100  MISS %:          0   MPKI: 0
L2C LOAD TRANSLATION ACCESS:      29203  HIT:      20145  MISS:       9058  HIT %:    68.9826  MISS %:    31.0174   MPKI: 0.36232
L2C PREFETCH  REQUESTED:          0  ISSUED:          0  USEFUL:       1794  USELESS:    1272831
L2C USEFUL LOAD PREFETCHES:       1794 PREFETCH ISSUED TO LOWER LEVEL:    1277456  ACCURACY: 0.140435
L2C TIMELY PREFETCHES:       1794 LATE PREFETCHES: 0 DROPPED PREFETCHES: 0
L2C PREFETCHES SAME FILL-ORIGIN LEVEL: 0 DIFFERENT FILL-ORIGIN LEVEL: 0
L2C AVERAGE MISS LATENCY: 113.519 cycles
L2C RQ	ACCESS:    2652267	FORWARD:          0	MERGED:          0	TO_CACHE:    2652264
L2C WQ	ACCESS:      79752	FORWARD:          3	MERGED:          0	TO_CACHE:      79752
L2C PQ	ACCESS:    1278810	FORWARD:          0	MERGED:          0	TO_CACHE:    1278810

L2C Instructions Evicting Data 0
L2C Translations Evicting Data 9039
L2C Data Evicting Data 3481672
L2C Instructions Evicting Instructions 0
L2C Translations Evicting Instructions 0
L2C Data Evicting Instructions 0
L2C Instructions Evicting Translations 0
L2C Translations Evicting Translations 19
L2C Data Evicting Translations 9020
L2C Dense regions hint from L2: 0
PSCL5 TOTAL     ACCESS:      29040  HIT:      29040  MISS:          0  HIT %:        100  MISS %:          0   MPKI: 0
PSCL5 LOAD TRANSLATION ACCESS:      29040  HIT:      29040  MISS:          0  HIT %:        100  MISS %:          0   MPKI: 0
PSCL5 PREFETCH  REQUESTED:          0  ISSUED:          0  USEFUL:          0  USELESS:          0
PSCL5 USEFUL LOAD PREFETCHES:          0 PREFETCH ISSUED TO LOWER LEVEL:          0  ACCURACY: -nan
PSCL5 TIMELY PREFETCHES:          0 LATE PREFETCHES: 0 DROPPED PREFETCHES: 0
PSCL5 PREFETCHES SAME FILL-ORIGIN LEVEL: 0 DIFFERENT FILL-ORIGIN LEVEL: 0

PSCL4 TOTAL     ACCESS:      29040  HIT:      29040  MISS:          0  HIT %:        100  MISS %:          0   MPKI: 0
PSCL4 LOAD TRANSLATION ACCESS:      29040  HIT:      29040  MISS:          0  HIT %:        100  MISS %:          0   MPKI: 0
PSCL4 PREFETCH  REQUESTED:          0  ISSUED:          0  USEFUL:          0  USELESS:          0
PSCL4 USEFUL LOAD PREFETCHES:          0 PREFETCH ISSUED TO LOWER LEVEL:          0  ACCURACY: -nan
PSCL4 TIMELY PREFETCHES:          0 LATE PREFETCHES: 0 DROPPED PREFETCHES: 0
PSCL4 PREFETCHES SAME FILL-ORIGIN LEVEL: 0 DIFFERENT FILL-ORIGIN LEVEL: 0

PSCL3 TOTAL     ACCESS:      29040  HIT:      29040  MISS:          0  HIT %:        100  MISS %:          0   MPKI: 0
PSCL3 LOAD TRANSLATION ACCESS:      29040  HIT:      29040  MISS:          0  HIT %:        100  MISS %:          0   MPKI: 0
PSCL3 PREFETCH  REQUESTED:          0  ISSUED:          0  USEFUL:          0  USELESS:          0
PSCL3 USEFUL LOAD PREFETCHES:          0 PREFETCH ISSUED TO LOWER LEVEL:          0  ACCURACY: -nan
PSCL3 TIMELY PREFETCHES:          0 LATE PREFETCHES: 0 DROPPED PREFETCHES: 0
PSCL3 PREFETCHES SAME FILL-ORIGIN LEVEL: 0 DIFFERENT FILL-ORIGIN LEVEL: 0

PSCL2 TOTAL     ACCESS:      29040  HIT:      28741  MISS:        299  HIT %:    98.9704  MISS %:    1.02961   MPKI: 0.01196
PSCL2 LOAD TRANSLATION ACCESS:      29040  HIT:      28741  MISS:        299  HIT %:    98.9704  MISS %:    1.02961   MPKI: 0.01196
PSCL2 PREFETCH  REQUESTED:          0  ISSUED:          0  USEFUL:          0  USELESS:          0
PSCL2 USEFUL LOAD PREFETCHES:          0 PREFETCH ISSUED TO LOWER LEVEL:          0  ACCURACY: -nan
PSCL2 TIMELY PREFETCHES:          0 LATE PREFETCHES: 0 DROPPED PREFETCHES: 0
PSCL2 PREFETCHES SAME FILL-ORIGIN LEVEL: 0 DIFFERENT FILL-ORIGIN LEVEL: 0

LLC TOTAL     ACCESS:    3575339  HIT:    1569788  MISS:    2005551  HIT %:     43.906  MISS %:     56.094   MPKI: 80.222
LLC LOAD      ACCESS:    2206974  HIT:    1472957  MISS:     734017  HIT %:     66.741  MISS %:     33.259   MPKI: 29.3607
LLC RFO       ACCESS:       6262  HIT:       5268  MISS:        994  HIT %:    84.1265  MISS %:    15.8735   MPKI: 0.03976
LLC PREFETCH  ACCESS:    1277456  HIT:      12106  MISS:    1265350  HIT %:   0.947665  MISS %:    99.0523   MPKI: 50.614
AGUS PREFETCH L1 MISS: 0
LLC WRITEBACK ACCESS:      75589  HIT:      75473  MISS:        116  HIT %:    99.8465  MISS %:   0.153461   MPKI: 0.00464
LLC LOAD TRANSLATION ACCESS:       9058  HIT:       3984  MISS:       5074  HIT %:    43.9832  MISS %:    56.0168   MPKI: 0.20296
LLC PREFETCH  REQUESTED:          0  ISSUED:          0  USEFUL:        972  USELESS:    1247534
LLC USEFUL LOAD PREFETCHES:        972 PREFETCH ISSUED TO LOWER LEVEL:    1265350  ACCURACY: 0.0768167
LLC TIMELY PREFETCHES:        972 LATE PREFETCHES: 0 DROPPED PREFETCHES: 0
LLC PREFETCHES SAME FILL-ORIGIN LEVEL: 0 DIFFERENT FILL-ORIGIN LEVEL: 0
LLC AVERAGE MISS LATENCY: 145.149 cycles
LLC RQ	ACCESS:    2222294	FORWARD:          0	MERGED:          0	TO_CACHE:    2222294
LLC WQ	ACCESS:      75589	FORWARD:          0	MERGED:          0	TO_CACHE:      75589
LLC PQ	ACCESS:    1277456	FORWARD:          0	MERGED:          0	TO_CACHE:    1277456

LLC Dense regions hint to LLC: 0

RAW hits: 62727
Loads Generated: 9014327
Loads sent to L1D: 8951600
Stores Generated: 459660
Stores sent to L1D: 459661
Major fault: 0 Minor fault: 44120
Allocated PAGES: 44120
CPU 0 L1D optimized prefetcher final stats
Degree: 5

DRAM Statistics
 CHANNEL 0
 RQ ROW_BUFFER_HIT:     938781  ROW_BUFFER_MISS:    1066629
 DBUS_CONGESTED:        371
 WQ ROW_BUFFER_HIT:      10438  ROW_BUFFER_MISS:      29309  FULL:          0

 AVG_CONGESTED_CYCLE: 4
 All warmup complete: 2
Channel 0 Bank busy for read cycles: 0
Channel 0 Bank busy for write cycles: 0
Channel 0
Rank 0
0banks busy for read cycles: 51031077
0banks busy for write cycles: 14645
1banks busy for read cycles: 35764092
1banks busy for write cycles: 2758913
2banks busy for read cycles: 19543170
2banks busy for write cycles: 544614
3banks busy for read cycles: 11454056
3banks busy for write cycles: 228298
4banks busy for read cycles: 7760142
4banks busy for write cycles: 143281
5banks busy for read cycles: 5400127
5banks busy for write cycles: 111983
6banks busy for read cycles: 3336964
6banks busy for write cycles: 108123
7banks busy for read cycles: 1737694
7banks busy for write cycles: 137593
8banks busy for read cycles: 940632
8banks busy for write cycles: 217988

CPU 0 Branch Prediction Accuracy: 96.3142% MPKI: 11.2642 Average ROB Occupancy at Mispredict: 44.9889
Branch types
NOT_BRANCH: 17359361 69.4374%
BRANCH_DIRECT_JUMP: 954613 3.81845%
BRANCH_INDIRECT: 0 0%
BRANCH_CONDITIONAL: 6513665 26.0547%
BRANCH_DIRECT_CALL: 79755 0.31902%
BRANCH_INDIRECT_CALL: 6250 0.025%
BRANCH_RETURN: 86007 0.344028%
BRANCH_OTHER: 0 0%

DRAM PAGES: 1048576
Allocated PAGES: 44120
