
*** ChampSim Multicore Out-of-Order Simulator ***

Warmup Instructions: 25000000
Simulation Instructions: 25000000
Number of CPUs: 1
LLC sets: 2048
LLC ways: 16
Off-chip DRAM Size: 4096 MB Channels: 1 Width: 64-bit Data Rate: 6400 MT/s
CPU 0 runs ./traces/trace1.champsimtrace.xz
.xz
CPU 0 Bimodal branch predictor
BTB has LRU replacement policy
ITLB has LRU replacement policy
DTLB has LRU replacement policy
CPU 0 STLB arbitrary stride prefetcher
STLB has LRU replacement policy
L1I has LRU replacement policy
L1D has LRU replacement policy
L2C has LRU replacement policy
LLC has LRU replacement policy
Heartbeat CPU 0 instructions: 10000003 cycles: 2936421 heartbeat IPC: 3.40551 cumulative IPC: 3.40551 (Simulation time: 0 hr 0 min 18 sec) 
Heartbeat CPU 0 instructions: 20000003 cycles: 5780712 heartbeat IPC: 3.51581 cumulative IPC: 3.45978 (Simulation time: 0 hr 0 min 36 sec) 

Warmup complete CPU 0 instructions: 25000004 cycles: 7200982 (Simulation time: 0 hr 0 min 45 sec) 

Heartbeat CPU 0 instructions: 30000002 cycles: 23408177 heartbeat IPC: 0.567297 cumulative IPC: 0.308505 (Simulation time: 0 hr 1 min 7 sec) 
Heartbeat CPU 0 instructions: 40000001 cycles: 57836807 heartbeat IPC: 0.290456 cumulative IPC: 0.296233 (Simulation time: 0 hr 1 min 52 sec) 
Heartbeat CPU 0 instructions: 50000003 cycles: 91131679 heartbeat IPC: 0.300347 cumulative IPC: 0.297865 (Simulation time: 0 hr 2 min 37 sec) 
Finished CPU 0 instructions: 25000003 cycles: 83930698 cumulative IPC: 0.297865 (Simulation time: 0 hr 2 min 37 sec) 

ChampSim completed all CPUs

Region of Interest Statistics

CPU 0 cumulative IPC: 0.297865 instructions: 25000003 cycles: 83930698
ITLB TOTAL     ACCESS:    4416181  HIT:    4416181  MISS:          0  HIT %:        100  MISS %:          0   MPKI: 0
ITLB LOAD TRANSLATION ACCESS:    4416181  HIT:    4416181  MISS:          0  HIT %:        100  MISS %:          0   MPKI: 0
ITLB PREFETCH  REQUESTED:          0  ISSUED:          0  USEFUL:          0  USELESS:          0
ITLB USEFUL LOAD PREFETCHES:          0 PREFETCH ISSUED TO LOWER LEVEL:          0  ACCURACY: -nan
ITLB TIMELY PREFETCHES:          0 LATE PREFETCHES: 0 DROPPED PREFETCHES: 0
ITLB PREFETCHES SAME FILL-ORIGIN LEVEL: 0 DIFFERENT FILL-ORIGIN LEVEL: 0
ITLB AVERAGE MISS LATENCY: -nan cycles
ITLB RQ	ACCESS:    4772572	FORWARD:          0	MERGED:     356391	TO_CACHE:    4416181

DTLB TOTAL     ACCESS:    3691260  HIT:    3028279  MISS:     662981  HIT %:    82.0392  MISS %:    17.9608   MPKI: 26.5192
DTLB LOAD TRANSLATION ACCESS:    3691260  HIT:    3028279  MISS:     662981  HIT %:    82.0392  MISS %:    17.9608   MPKI: 26.5192
DTLB PREFETCH  REQUESTED:          0  ISSUED:          0  USEFUL:          0  USELESS:          0
DTLB USEFUL LOAD PREFETCHES:          0 PREFETCH ISSUED TO LOWER LEVEL:          0  ACCURACY: -nan
DTLB TIMELY PREFETCHES:          0 LATE PREFETCHES: 0 DROPPED PREFETCHES: 0
DTLB PREFETCHES SAME FILL-ORIGIN LEVEL: 0 DIFFERENT FILL-ORIGIN LEVEL: 0
DTLB AVERAGE MISS LATENCY: 42.7028 cycles
DTLB RQ	ACCESS:    4294525	FORWARD:          0	MERGED:     591154	TO_CACHE:    3703371

STLB TOTAL     ACCESS:    1454225  HIT:     138941  MISS:    1315284  HIT %:     9.5543  MISS %:    90.4457   MPKI: 52.6114
STLB LOAD TRANSLATION ACCESS:     662981  HIT:     133618  MISS:     529363  HIT %:    20.1541  MISS %:    79.8459   MPKI: 21.1745
STLB PREFETCH TRANSLATION ACCESS:     791244  HIT:       5323  MISS:     785921  HIT %:   0.672738  MISS %:    99.3273   MPKI: 31.4368
STLB PREFETCH  REQUESTED:    1400960  ISSUED:    1159503  USEFUL:      48159  USELESS:     737842
STLB USEFUL LOAD PREFETCHES:      48159 PREFETCH ISSUED TO LOWER LEVEL:    1041354  ACCURACY: 4.62465
STLB TIMELY PREFETCHES:      48159 LATE PREFETCHES: 17489 DROPPED PREFETCHES: 237936
STLB PREFETCHES SAME FILL-ORIGIN LEVEL: 1041354 DIFFERENT FILL-ORIGIN LEVEL: 0
STLB AVERAGE MISS LATENCY: 122.377 cycles
STLB RQ	ACCESS:     662984	FORWARD:          0	MERGED:          0	TO_CACHE:     662984
STLB PQ	ACCESS:    1159503	FORWARD:          0	MERGED:      29092	TO_CACHE:    1130411

STLB Hit, L1D data hit: 0
STLB Hit, L2C data hit: 0
STLB Hit, LLC data hit: 0
STLB Hit, LLC data miss: 0
STLB STLB hints to L2: 0
L1D TOTAL     ACCESS:    4280215  HIT:    3074903  MISS:    1205312  HIT %:    71.8399  MISS %:    28.1601   MPKI: 48.2125
L1D LOAD      ACCESS:    3171551  HIT:    2035603  MISS:    1135948  HIT %:    64.1832  MISS %:    35.8168   MPKI: 45.4379
L1D RFO       ACCESS:    1108664  HIT:    1039300  MISS:      69364  HIT %:    93.7435  MISS %:    6.25654   MPKI: 2.77456
L1D PREFETCH  REQUESTED:          0  ISSUED:          0  USEFUL:          0  USELESS:          0
L1D USEFUL LOAD PREFETCHES:          0 PREFETCH ISSUED TO LOWER LEVEL:          0  ACCURACY: -nan
L1D TIMELY PREFETCHES:          0 LATE PREFETCHES: 0 DROPPED PREFETCHES: 0
L1D PREFETCHES SAME FILL-ORIGIN LEVEL: 0 DIFFERENT FILL-ORIGIN LEVEL: 0
L1D AVERAGE MISS LATENCY: 125.684 cycles
L1D RQ	ACCESS:    6170543	FORWARD:          0	MERGED:    2911152	TO_CACHE:    3185859
L1D WQ	ACCESS:    1108674	FORWARD:      73532	MERGED:          8	TO_CACHE:    1108666

L1D UNIQUE REGIONS ACCESSED: 0
L1D REGIONS CONFLICTS: 0
L1D Cross Page Prefetch Requests: 0
L1D Same Page Prefetch Requests: 0
L1D ROI Sum of L1D PQ occupancy: 0
L1D PREFETCHES PUSHED FROM L2C: 0
L1I TOTAL     ACCESS:    4772572  HIT:    4772572  MISS:          0  HIT %:        100  MISS %:          0   MPKI: 0
L1I LOAD      ACCESS:    4772572  HIT:    4772572  MISS:          0  HIT %:        100  MISS %:          0   MPKI: 0
L1I PREFETCH  REQUESTED:          0  ISSUED:          0  USEFUL:          0  USELESS:          0
L1I USEFUL LOAD PREFETCHES:          0 PREFETCH ISSUED TO LOWER LEVEL:          0  ACCURACY: -nan
L1I TIMELY PREFETCHES:          0 LATE PREFETCHES: 0 DROPPED PREFETCHES: 0
L1I PREFETCHES SAME FILL-ORIGIN LEVEL: 0 DIFFERENT FILL-ORIGIN LEVEL: 0
L1I AVERAGE MISS LATENCY: -nan cycles
L1I RQ	ACCESS:    7013342	FORWARD:          0	MERGED:    2240770	TO_CACHE:    4772572

BTB TOTAL     ACCESS:    3283963  HIT:    3283955  MISS:          8  HIT %:    99.9998  MISS %: 0.000243608   MPKI: 0.00032
BTB BRANCH_DIRECT_JUMP	ACCESS:     568310  HIT:     568308  MISS:          2
BTB BRANCH_INDIRECT	ACCESS:          0  HIT:          0  MISS:          0
BTB BRANCH_CONDITIONAL	ACCESS:    1606985  HIT:    1606981  MISS:          4
BTB BRANCH_DIRECT_CALL	ACCESS:     554334  HIT:     554333  MISS:          1
BTB BRANCH_INDIRECT_CALL	ACCESS:          0  HIT:          0  MISS:          0
BTB BRANCH_RETURN	ACCESS:     554334  HIT:     554333  MISS:          1
BTB BRANCH_OTHER ACCESS:          0  HIT:          0  MISS:          0

L2C TOTAL     ACCESS:    3462514  HIT:    2212366  MISS:    1250148  HIT %:    63.8948  MISS %:    36.1052   MPKI: 50.0059
L2C LOAD      ACCESS:    1135948  HIT:     391070  MISS:     744878  HIT %:    34.4268  MISS %:    65.5732   MPKI: 29.7951
L2C DATA LOAD MPKI: 29.7951
L2C INSTRUCTION LOAD MPKI: 0
L2C RFO       ACCESS:      69364  HIT:      30470  MISS:      38894  HIT %:    43.9277  MISS %:    56.0723   MPKI: 1.55576
L2C WRITEBACK ACCESS:     554350  HIT:     554350  MISS:          0  HIT %:        100  MISS %:          0   MPKI: 0
L2C LOAD TRANSLATION ACCESS:     523360  HIT:     450720  MISS:      72640  HIT %:    86.1205  MISS %:    13.8795   MPKI: 2.9056
L2C PREFETCH TRANSLATION ACCESS:    1179492  HIT:     785756  MISS:     393736  HIT %:    66.6182  MISS %:    33.3818   MPKI: 15.7494
L2C PREFETCH  REQUESTED:          0  ISSUED:          0  USEFUL:     295484  USELESS:      98511
L2C USEFUL LOAD PREFETCHES:     295484 PREFETCH ISSUED TO LOWER LEVEL:          0  ACCURACY: inf
L2C TIMELY PREFETCHES:     295484 LATE PREFETCHES: 0 DROPPED PREFETCHES: 0
L2C PREFETCHES SAME FILL-ORIGIN LEVEL: 0 DIFFERENT FILL-ORIGIN LEVEL: 0
L2C AVERAGE MISS LATENCY: 120.571 cycles
L2C RQ	ACCESS:    2908164	FORWARD:          0	MERGED:          0	TO_CACHE:    2908164
L2C WQ	ACCESS:     554350	FORWARD:          0	MERGED:          0	TO_CACHE:     554350

L2C Instructions Evicting Data 0
L2C Translations Evicting Data 264393
L2C Data Evicting Data 519261
L2C Instructions Evicting Instructions 0
L2C Translations Evicting Instructions 0
L2C Data Evicting Instructions 0
L2C Instructions Evicting Translations 0
L2C Translations Evicting Translations 201983
L2C Data Evicting Translations 264511
L2C Dense regions hint from L2: 0
PSCL5 TOTAL     ACCESS:    1553236  HIT:    1553236  MISS:          0  HIT %:        100  MISS %:          0   MPKI: 0
PSCL5 LOAD TRANSLATION ACCESS:     511890  HIT:     511890  MISS:          0  HIT %:        100  MISS %:          0   MPKI: 0
PSCL5 PREFETCH TRANSLATION ACCESS:    1041346  HIT:    1041346  MISS:          0  HIT %:        100  MISS %:          0   MPKI: 0
PSCL5 PREFETCH  REQUESTED:          0  ISSUED:          0  USEFUL:          0  USELESS:          0
PSCL5 USEFUL LOAD PREFETCHES:          0 PREFETCH ISSUED TO LOWER LEVEL:          0  ACCURACY: -nan
PSCL5 TIMELY PREFETCHES:          0 LATE PREFETCHES: 0 DROPPED PREFETCHES: 0
PSCL5 PREFETCHES SAME FILL-ORIGIN LEVEL: 0 DIFFERENT FILL-ORIGIN LEVEL: 0

PSCL4 TOTAL     ACCESS:    1553236  HIT:    1553236  MISS:          0  HIT %:        100  MISS %:          0   MPKI: 0
PSCL4 LOAD TRANSLATION ACCESS:     511890  HIT:     511890  MISS:          0  HIT %:        100  MISS %:          0   MPKI: 0
PSCL4 PREFETCH TRANSLATION ACCESS:    1041346  HIT:    1041346  MISS:          0  HIT %:        100  MISS %:          0   MPKI: 0
PSCL4 PREFETCH  REQUESTED:          0  ISSUED:          0  USEFUL:          0  USELESS:          0
PSCL4 USEFUL LOAD PREFETCHES:          0 PREFETCH ISSUED TO LOWER LEVEL:          0  ACCURACY: -nan
PSCL4 TIMELY PREFETCHES:          0 LATE PREFETCHES: 0 DROPPED PREFETCHES: 0
PSCL4 PREFETCHES SAME FILL-ORIGIN LEVEL: 0 DIFFERENT FILL-ORIGIN LEVEL: 0

PSCL3 TOTAL     ACCESS:    1552251  HIT:    1552251  MISS:          0  HIT %:        100  MISS %:          0   MPKI: 0
PSCL3 LOAD TRANSLATION ACCESS:     511890  HIT:     511890  MISS:          0  HIT %:        100  MISS %:          0   MPKI: 0
PSCL3 PREFETCH TRANSLATION ACCESS:    1040361  HIT:    1040361  MISS:          0  HIT %:        100  MISS %:          0   MPKI: 0
PSCL3 PREFETCH  REQUESTED:          0  ISSUED:          0  USEFUL:          0  USELESS:          0
PSCL3 USEFUL LOAD PREFETCHES:          0 PREFETCH ISSUED TO LOWER LEVEL:          0  ACCURACY: -nan
PSCL3 TIMELY PREFETCHES:          0 LATE PREFETCHES: 0 DROPPED PREFETCHES: 0
PSCL3 PREFETCHES SAME FILL-ORIGIN LEVEL: 0 DIFFERENT FILL-ORIGIN LEVEL: 0

PSCL2 TOTAL     ACCESS:    1477345  HIT:    1398369  MISS:      78976  HIT %:    94.6542  MISS %:    5.34581   MPKI: 3.15904
PSCL2 LOAD TRANSLATION ACCESS:     579395  HIT:     500419  MISS:      78976  HIT %:    86.3692  MISS %:    13.6308   MPKI: 3.15904
PSCL2 PREFETCH TRANSLATION ACCESS:     897950  HIT:     897950  MISS:          0  HIT %:        100  MISS %:          0   MPKI: 0
PSCL2 PREFETCH  REQUESTED:          0  ISSUED:          0  USEFUL:          0  USELESS:          0
PSCL2 USEFUL LOAD PREFETCHES:          0 PREFETCH ISSUED TO LOWER LEVEL:          0  ACCURACY: -nan
PSCL2 TIMELY PREFETCHES:          0 LATE PREFETCHES: 0 DROPPED PREFETCHES: 0
PSCL2 PREFETCHES SAME FILL-ORIGIN LEVEL: 0 DIFFERENT FILL-ORIGIN LEVEL: 0

LLC TOTAL     ACCESS:    1804863  HIT:    1142596  MISS:     662267  HIT %:    63.3065  MISS %:    36.6935   MPKI: 26.4907
LLC LOAD      ACCESS:     744878  HIT:     103328  MISS:     641550  HIT %:    13.8718  MISS %:    86.1282   MPKI: 25.662
LLC RFO       ACCESS:      38894  HIT:      38890  MISS:          4  HIT %:    99.9897  MISS %:  0.0102844   MPKI: 0.00016
LLC WRITEBACK ACCESS:     554715  HIT:     554715  MISS:          0  HIT %:        100  MISS %:          0   MPKI: 0
LLC LOAD TRANSLATION ACCESS:      72640  HIT:      71523  MISS:       1117  HIT %:    98.4623  MISS %:    1.53772   MPKI: 0.04468
LLC PREFETCH TRANSLATION ACCESS:     393736  HIT:     374140  MISS:      19596  HIT %:    95.0231  MISS %:    4.97694   MPKI: 0.78384
LLC PREFETCH  REQUESTED:          0  ISSUED:          0  USEFUL:      12596  USELESS:       6940
LLC USEFUL LOAD PREFETCHES:      12596 PREFETCH ISSUED TO LOWER LEVEL:          0  ACCURACY: inf
LLC TIMELY PREFETCHES:      12596 LATE PREFETCHES: 0 DROPPED PREFETCHES: 0
LLC PREFETCHES SAME FILL-ORIGIN LEVEL: 0 DIFFERENT FILL-ORIGIN LEVEL: 0
LLC AVERAGE MISS LATENCY: 170.78 cycles
LLC RQ	ACCESS:    1250147	FORWARD:          0	MERGED:          0	TO_CACHE:    1250147
LLC WQ	ACCESS:     554716	FORWARD:          0	MERGED:          0	TO_CACHE:     554716

LLC Dense regions hint to LLC: 0

RAW hits: 479990
Loads Generated: 6650538
Loads sent to L1D: 6170543
Stores Generated: 1108672
Stores sent to L1D: 1108674
Major fault: 0 Minor fault: 23115
Allocated PAGES: 23115
CPU 0 STLB arbitrary stride prefetcher final stats
Degree: 8

DRAM Statistics
 CHANNEL 0
 RQ ROW_BUFFER_HIT:       1353  ROW_BUFFER_MISS:     660913
 DBUS_CONGESTED:          4
 WQ ROW_BUFFER_HIT:     245512  ROW_BUFFER_MISS:     308488  FULL:          0

 AVG_CONGESTED_CYCLE: 5
 All warmup complete: 2
Channel 0 Bank busy for read cycles: 0
Channel 0 Bank busy for write cycles: 0
Channel 0
Rank 0
0banks busy for read cycles: 1665971
0banks busy for write cycles: 40995
1banks busy for read cycles: 18375591
1banks busy for write cycles: 3399912
2banks busy for read cycles: 13204639
2banks busy for write cycles: 5705023
3banks busy for read cycles: 12107253
3banks busy for write cycles: 8876019
4banks busy for read cycles: 4447781
4banks busy for write cycles: 8398737
5banks busy for read cycles: 61196
5banks busy for write cycles: 3945736
6banks busy for read cycles: 218
6banks busy for write cycles: 1900600
7banks busy for read cycles: 0
7banks busy for write cycles: 1026848
8banks busy for read cycles: 0
8banks busy for write cycles: 774180

CPU 0 Branch Prediction Accuracy: 99.9685% MPKI: 0.04912 Average ROB Occupancy at Mispredict: 155.73
Branch types
NOT_BRANCH: 21105636 84.4225%
BRANCH_DIRECT_JUMP: 568310 2.27324%
BRANCH_INDIRECT: 0 0%
BRANCH_CONDITIONAL: 2217336 8.86934%
BRANCH_DIRECT_CALL: 554334 2.21734%
BRANCH_INDIRECT_CALL: 0 0%
BRANCH_RETURN: 554334 2.21734%
BRANCH_OTHER: 0 0%

DRAM PAGES: 1048576
Allocated PAGES: 23115
