
*** ChampSim Multicore Out-of-Order Simulator ***

Warmup Instructions: 25000000
Simulation Instructions: 25000000
Number of CPUs: 1
LLC sets: 2048
LLC ways: 16
Off-chip DRAM Size: 4096 MB Channels: 1 Width: 64-bit Data Rate: 6400 MT/s
CPU 0 runs ./traces/trace1.champsimtrace.xz
.xz
CPU 0 Bimodal branch predictor
BTB has LRU replacement policy
ITLB has LRU replacement policy
DTLB has LRU replacement policy
CPU 0 STLB arbitrary stride prefetcher
STLB has LRU replacement policy
L1I has LRU replacement policy
L1D has LRU replacement policy
L2C has LRU replacement policy
LLC has LRU replacement policy
Heartbeat CPU 0 instructions: 10000003 cycles: 2822113 heartbeat IPC: 3.54345 cumulative IPC: 3.54345 (Simulation time: 0 hr 0 min 16 sec) 
Heartbeat CPU 0 instructions: 20000003 cycles: 5632229 heartbeat IPC: 3.55857 cumulative IPC: 3.55099 (Simulation time: 0 hr 0 min 33 sec) 

Warmup complete CPU 0 instructions: 25000004 cycles: 7041758 (Simulation time: 0 hr 0 min 41 sec) 

Heartbeat CPU 0 instructions: 30000002 cycles: 23396762 heartbeat IPC: 0.562919 cumulative IPC: 0.305717 (Simulation time: 0 hr 1 min 3 sec) 
Heartbeat CPU 0 instructions: 40000001 cycles: 57997045 heartbeat IPC: 0.289015 cumulative IPC: 0.294376 (Simulation time: 0 hr 1 min 46 sec) 
Heartbeat CPU 0 instructions: 50000000 cycles: 91507636 heartbeat IPC: 0.298413 cumulative IPC: 0.295977 (Simulation time: 0 hr 2 min 29 sec) 
Finished CPU 0 instructions: 25000000 cycles: 84465879 cumulative IPC: 0.295978 (Simulation time: 0 hr 2 min 29 sec) 

ChampSim completed all CPUs

Region of Interest Statistics

CPU 0 cumulative IPC: 0.295978 instructions: 25000000 cycles: 84465879
ITLB TOTAL     ACCESS:    4430237  HIT:    4430237  MISS:          0  HIT %:        100  MISS %:          0   MPKI: 0
ITLB LOAD TRANSLATION ACCESS:    4430237  HIT:    4430237  MISS:          0  HIT %:        100  MISS %:          0   MPKI: 0
ITLB PREFETCH  REQUESTED:          0  ISSUED:          0  USEFUL:          0  USELESS:          0
ITLB USEFUL LOAD PREFETCHES:          0 PREFETCH ISSUED TO LOWER LEVEL:          0  ACCURACY: -nan
ITLB TIMELY PREFETCHES:          0 LATE PREFETCHES: 0 DROPPED PREFETCHES: 0
ITLB PREFETCHES SAME FILL-ORIGIN LEVEL: 0 DIFFERENT FILL-ORIGIN LEVEL: 0
ITLB AVERAGE MISS LATENCY: -nan cycles
ITLB RQ	ACCESS:    4784154	FORWARD:          0	MERGED:     353918	TO_CACHE:    4430236

DTLB TOTAL     ACCESS:    3698702  HIT:    3035751  MISS:     662951  HIT %:    82.0761  MISS %:    17.9239   MPKI: 26.518
DTLB LOAD TRANSLATION ACCESS:    3698702  HIT:    3035751  MISS:     662951  HIT %:    82.0761  MISS %:    17.9239   MPKI: 26.518
DTLB PREFETCH  REQUESTED:          0  ISSUED:          0  USEFUL:          0  USELESS:          0
DTLB USEFUL LOAD PREFETCHES:          0 PREFETCH ISSUED TO LOWER LEVEL:          0  ACCURACY: -nan
DTLB TIMELY PREFETCHES:          0 LATE PREFETCHES: 0 DROPPED PREFETCHES: 0
DTLB PREFETCHES SAME FILL-ORIGIN LEVEL: 0 DIFFERENT FILL-ORIGIN LEVEL: 0
DTLB AVERAGE MISS LATENCY: 41.6603 cycles
DTLB RQ	ACCESS:    4301907	FORWARD:          0	MERGED:     592050	TO_CACHE:    3709857

STLB TOTAL     ACCESS:    1222559  HIT:     164580  MISS:    1057979  HIT %:    13.4619  MISS %:    86.5381   MPKI: 42.3192
STLB LOAD TRANSLATION ACCESS:     662951  HIT:     159889  MISS:     503062  HIT %:    24.1178  MISS %:    75.8822   MPKI: 20.1225
STLB PREFETCH TRANSLATION ACCESS:     559608  HIT:       4691  MISS:     554917  HIT %:   0.838265  MISS %:    99.1617   MPKI: 22.1967
STLB PREFETCH  REQUESTED:     905694  ISSUED:     850155  USEFUL:      68220  USELESS:     486525
STLB USEFUL LOAD PREFETCHES:      68220 PREFETCH ISSUED TO LOWER LEVEL:     726931  ACCURACY: 9.38466
STLB TIMELY PREFETCHES:      68220 LATE PREFETCHES: 14624 DROPPED PREFETCHES: 157390
STLB PREFETCHES SAME FILL-ORIGIN LEVEL: 726931 DIFFERENT FILL-ORIGIN LEVEL: 0
STLB AVERAGE MISS LATENCY: 103.559 cycles
STLB RQ	ACCESS:     662953	FORWARD:          0	MERGED:          0	TO_CACHE:     662953
STLB PQ	ACCESS:     850155	FORWARD:          0	MERGED:      60633	TO_CACHE:     789522

STLB Hit, L1D data hit: 0
STLB Hit, L2C data hit: 0
STLB Hit, LLC data hit: 0
STLB Hit, LLC data miss: 0
STLB STLB hints to L2: 0
L1D TOTAL     ACCESS:    4285046  HIT:    3079740  MISS:    1205306  HIT %:    71.8718  MISS %:    28.1282   MPKI: 48.2122
L1D LOAD      ACCESS:    3176382  HIT:    2040440  MISS:    1135942  HIT %:    64.2379  MISS %:    35.7621   MPKI: 45.4377
L1D RFO       ACCESS:    1108664  HIT:    1039300  MISS:      69364  HIT %:    93.7435  MISS %:    6.25654   MPKI: 2.77456
L1D PREFETCH  REQUESTED:          0  ISSUED:          0  USEFUL:          0  USELESS:          0
L1D USEFUL LOAD PREFETCHES:          0 PREFETCH ISSUED TO LOWER LEVEL:          0  ACCURACY: -nan
L1D TIMELY PREFETCHES:          0 LATE PREFETCHES: 0 DROPPED PREFETCHES: 0
L1D PREFETCHES SAME FILL-ORIGIN LEVEL: 0 DIFFERENT FILL-ORIGIN LEVEL: 0
L1D AVERAGE MISS LATENCY: 125.337 cycles
L1D RQ	ACCESS:    6167320	FORWARD:          0	MERGED:    2903766	TO_CACHE:    3193241
L1D WQ	ACCESS:    1108674	FORWARD:      70313	MERGED:          8	TO_CACHE:    1108666

L1D UNIQUE REGIONS ACCESSED: 0
L1D REGIONS CONFLICTS: 0
L1D Cross Page Prefetch Requests: 0
L1D Same Page Prefetch Requests: 0
L1D ROI Sum of L1D PQ occupancy: 0
L1D PREFETCHES PUSHED FROM L2C: 0
L1I TOTAL     ACCESS:    4784155  HIT:    4784155  MISS:          0  HIT %:        100  MISS %:          0   MPKI: 0
L1I LOAD      ACCESS:    4784155  HIT:    4784155  MISS:          0  HIT %:        100  MISS %:          0   MPKI: 0
L1I PREFETCH  REQUESTED:          0  ISSUED:          0  USEFUL:          0  USELESS:          0
L1I USEFUL LOAD PREFETCHES:          0 PREFETCH ISSUED TO LOWER LEVEL:          0  ACCURACY: -nan
L1I TIMELY PREFETCHES:          0 LATE PREFETCHES: 0 DROPPED PREFETCHES: 0
L1I PREFETCHES SAME FILL-ORIGIN LEVEL: 0 DIFFERENT FILL-ORIGIN LEVEL: 0
L1I AVERAGE MISS LATENCY: -nan cycles
L1I RQ	ACCESS:    7051426	FORWARD:          0	MERGED:    2267272	TO_CACHE:    4784154

BTB TOTAL     ACCESS:    3283960  HIT:    3283952  MISS:          8  HIT %:    99.9998  MISS %: 0.000243608   MPKI: 0.00032
BTB BRANCH_DIRECT_JUMP	ACCESS:     568310  HIT:     568308  MISS:          2
BTB BRANCH_INDIRECT	ACCESS:          0  HIT:          0  MISS:          0
BTB BRANCH_CONDITIONAL	ACCESS:    1606983  HIT:    1606979  MISS:          4
BTB BRANCH_DIRECT_CALL	ACCESS:     554334  HIT:     554333  MISS:          1
BTB BRANCH_INDIRECT_CALL	ACCESS:          0  HIT:          0  MISS:          0
BTB BRANCH_RETURN	ACCESS:     554333  HIT:     554332  MISS:          1
BTB BRANCH_OTHER ACCESS:          0  HIT:          0  MISS:          0

L2C TOTAL     ACCESS:    3100182  HIT:    1954060  MISS:    1146122  HIT %:    63.0305  MISS %:    36.9695   MPKI: 45.8449
L2C LOAD      ACCESS:    1135942  HIT:     401098  MISS:     734844  HIT %:    35.3097  MISS %:    64.6903   MPKI: 29.3938
L2C DATA LOAD MPKI: 29.3938
L2C INSTRUCTION LOAD MPKI: 0
L2C RFO       ACCESS:      69364  HIT:      34873  MISS:      34491  HIT %:    50.2754  MISS %:    49.7246   MPKI: 1.37964
L2C WRITEBACK ACCESS:     554349  HIT:     554349  MISS:          0  HIT %:        100  MISS %:          0   MPKI: 0
L2C LOAD TRANSLATION ACCESS:     508699  HIT:     407036  MISS:     101663  HIT %:    80.0151  MISS %:    19.9849   MPKI: 4.06652
L2C PREFETCH TRANSLATION ACCESS:     831828  HIT:     556704  MISS:     275124  HIT %:    66.9254  MISS %:    33.0746   MPKI: 11.005
L2C PREFETCH  REQUESTED:          0  ISSUED:          0  USEFUL:     199759  USELESS:      75427
L2C USEFUL LOAD PREFETCHES:     199759 PREFETCH ISSUED TO LOWER LEVEL:          0  ACCURACY: inf
L2C TIMELY PREFETCHES:     199759 LATE PREFETCHES: 0 DROPPED PREFETCHES: 0
L2C PREFETCHES SAME FILL-ORIGIN LEVEL: 0 DIFFERENT FILL-ORIGIN LEVEL: 0
L2C AVERAGE MISS LATENCY: 128.523 cycles
L2C RQ	ACCESS:    2545833	FORWARD:          0	MERGED:          0	TO_CACHE:    2545833
L2C WQ	ACCESS:     554349	FORWARD:          0	MERGED:          0	TO_CACHE:     554349

L2C Instructions Evicting Data 0
L2C Translations Evicting Data 222949
L2C Data Evicting Data 546630
L2C Instructions Evicting Instructions 0
L2C Translations Evicting Instructions 0
L2C Data Evicting Instructions 0
L2C Instructions Evicting Translations 0
L2C Translations Evicting Translations 153838
L2C Data Evicting Translations 222705
L2C Dense regions hint from L2: 0
PSCL5 TOTAL     ACCESS:    1215372  HIT:    1215372  MISS:          0  HIT %:        100  MISS %:          0   MPKI: 0
PSCL5 LOAD TRANSLATION ACCESS:     488441  HIT:     488441  MISS:          0  HIT %:        100  MISS %:          0   MPKI: 0
PSCL5 PREFETCH TRANSLATION ACCESS:     726931  HIT:     726931  MISS:          0  HIT %:        100  MISS %:          0   MPKI: 0
PSCL5 PREFETCH  REQUESTED:          0  ISSUED:          0  USEFUL:          0  USELESS:          0
PSCL5 USEFUL LOAD PREFETCHES:          0 PREFETCH ISSUED TO LOWER LEVEL:          0  ACCURACY: -nan
PSCL5 TIMELY PREFETCHES:          0 LATE PREFETCHES: 0 DROPPED PREFETCHES: 0
PSCL5 PREFETCHES SAME FILL-ORIGIN LEVEL: 0 DIFFERENT FILL-ORIGIN LEVEL: 0

PSCL4 TOTAL     ACCESS:    1215372  HIT:    1215372  MISS:          0  HIT %:        100  MISS %:          0   MPKI: 0
PSCL4 LOAD TRANSLATION ACCESS:     488441  HIT:     488441  MISS:          0  HIT %:        100  MISS %:          0   MPKI: 0
PSCL4 PREFETCH TRANSLATION ACCESS:     726931  HIT:     726931  MISS:          0  HIT %:        100  MISS %:          0   MPKI: 0
PSCL4 PREFETCH  REQUESTED:          0  ISSUED:          0  USEFUL:          0  USELESS:          0
PSCL4 USEFUL LOAD PREFETCHES:          0 PREFETCH ISSUED TO LOWER LEVEL:          0  ACCURACY: -nan
PSCL4 TIMELY PREFETCHES:          0 LATE PREFETCHES: 0 DROPPED PREFETCHES: 0
PSCL4 PREFETCHES SAME FILL-ORIGIN LEVEL: 0 DIFFERENT FILL-ORIGIN LEVEL: 0

PSCL3 TOTAL     ACCESS:    1214775  HIT:    1214775  MISS:          0  HIT %:        100  MISS %:          0   MPKI: 0
PSCL3 LOAD TRANSLATION ACCESS:     488441  HIT:     488441  MISS:          0  HIT %:        100  MISS %:          0   MPKI: 0
PSCL3 PREFETCH TRANSLATION ACCESS:     726334  HIT:     726334  MISS:          0  HIT %:        100  MISS %:          0   MPKI: 0
PSCL3 PREFETCH  REQUESTED:          0  ISSUED:          0  USEFUL:          0  USELESS:          0
PSCL3 USEFUL LOAD PREFETCHES:          0 PREFETCH ISSUED TO LOWER LEVEL:          0  ACCURACY: -nan
PSCL3 TIMELY PREFETCHES:          0 LATE PREFETCHES: 0 DROPPED PREFETCHES: 0
PSCL3 PREFETCHES SAME FILL-ORIGIN LEVEL: 0 DIFFERENT FILL-ORIGIN LEVEL: 0

PSCL2 TOTAL     ACCESS:    1165610  HIT:    1086780  MISS:      78830  HIT %:     93.237  MISS %:    6.76298   MPKI: 3.1532
PSCL2 LOAD TRANSLATION ACCESS:     547013  HIT:     468183  MISS:      78830  HIT %:     85.589  MISS %:     14.411   MPKI: 3.1532
PSCL2 PREFETCH TRANSLATION ACCESS:     618597  HIT:     618597  MISS:          0  HIT %:        100  MISS %:          0   MPKI: 0
PSCL2 PREFETCH  REQUESTED:          0  ISSUED:          0  USEFUL:          0  USELESS:          0
PSCL2 USEFUL LOAD PREFETCHES:          0 PREFETCH ISSUED TO LOWER LEVEL:          0  ACCURACY: -nan
PSCL2 TIMELY PREFETCHES:          0 LATE PREFETCHES: 0 DROPPED PREFETCHES: 0
PSCL2 PREFETCHES SAME FILL-ORIGIN LEVEL: 0 DIFFERENT FILL-ORIGIN LEVEL: 0

LLC TOTAL     ACCESS:    1701151  HIT:    1040913  MISS:     660238  HIT %:    61.1887  MISS %:    38.8113   MPKI: 26.4095
LLC LOAD      ACCESS:     734844  HIT:      93311  MISS:     641533  HIT %:    12.6981  MISS %:    87.3019   MPKI: 25.6613
LLC RFO       ACCESS:      34491  HIT:      34487  MISS:          4  HIT %:    99.9884  MISS %:  0.0115972   MPKI: 0.00016
LLC WRITEBACK ACCESS:     555029  HIT:     555029  MISS:          0  HIT %:        100  MISS %:          0   MPKI: 0
LLC LOAD TRANSLATION ACCESS:     101663  HIT:      99637  MISS:       2026  HIT %:    98.0071  MISS %:    1.99286   MPKI: 0.08104
LLC PREFETCH TRANSLATION ACCESS:     275124  HIT:     258449  MISS:      16675  HIT %:    93.9391  MISS %:     6.0609   MPKI: 0.667
LLC PREFETCH  REQUESTED:          0  ISSUED:          0  USEFUL:      10361  USELESS:       6248
LLC USEFUL LOAD PREFETCHES:      10361 PREFETCH ISSUED TO LOWER LEVEL:          0  ACCURACY: inf
LLC TIMELY PREFETCHES:      10361 LATE PREFETCHES: 0 DROPPED PREFETCHES: 0
LLC PREFETCHES SAME FILL-ORIGIN LEVEL: 0 DIFFERENT FILL-ORIGIN LEVEL: 0
LLC AVERAGE MISS LATENCY: 170.86 cycles
LLC RQ	ACCESS:    1146122	FORWARD:          0	MERGED:          0	TO_CACHE:    1146122
LLC WQ	ACCESS:     555029	FORWARD:          0	MERGED:          0	TO_CACHE:     555029

LLC Dense regions hint to LLC: 0

RAW hits: 483208
Loads Generated: 6650532
Loads sent to L1D: 6167320
Stores Generated: 1108672
Stores sent to L1D: 1108674
Major fault: 0 Minor fault: 23115
Allocated PAGES: 23115
CPU 0 STLB arbitrary stride prefetcher final stats
Degree: 6

DRAM Statistics
 CHANNEL 0
 RQ ROW_BUFFER_HIT:       1180  ROW_BUFFER_MISS:     659058
 DBUS_CONGESTED:          4
 WQ ROW_BUFFER_HIT:     249674  ROW_BUFFER_MISS:     305621  FULL:          0

 AVG_CONGESTED_CYCLE: 4
 All warmup complete: 2
Channel 0 Bank busy for read cycles: 0
Channel 0 Bank busy for write cycles: 0
Channel 0
Rank 0
0banks busy for read cycles: 1693736
0banks busy for write cycles: 39441
1banks busy for read cycles: 19445047
1banks busy for write cycles: 3382889
2banks busy for read cycles: 13552793
2banks busy for write cycles: 5342571
3banks busy for read cycles: 11878301
3banks busy for write cycles: 8424885
4banks busy for read cycles: 4096666
4banks busy for write cycles: 8240422
5banks busy for read cycles: 68923
5banks busy for write cycles: 4188963
6banks busy for read cycles: 353
6banks busy for write cycles: 2095623
7banks busy for read cycles: 0
7banks busy for write cycles: 1166225
8banks busy for read cycles: 0
8banks busy for write cycles: 849042

CPU 0 Branch Prediction Accuracy: 99.9685% MPKI: 0.04912 Average ROB Occupancy at Mispredict: 155.776
Branch types
NOT_BRANCH: 21105622 84.4225%
BRANCH_DIRECT_JUMP: 568310 2.27324%
BRANCH_INDIRECT: 0 0%
BRANCH_CONDITIONAL: 2217333 8.86933%
BRANCH_DIRECT_CALL: 554334 2.21734%
BRANCH_INDIRECT_CALL: 0 0%
BRANCH_RETURN: 554333 2.21733%
BRANCH_OTHER: 0 0%

DRAM PAGES: 1048576
Allocated PAGES: 23115
