
*** ChampSim Multicore Out-of-Order Simulator ***

Warmup Instructions: 25000000
Simulation Instructions: 25000000
Number of CPUs: 1
LLC sets: 2048
LLC ways: 16
Off-chip DRAM Size: 4096 MB Channels: 1 Width: 64-bit Data Rate: 6400 MT/s
CPU 0 runs ./traces/trace1.champsimtrace.xz
.xz
CPU 0 Bimodal branch predictor
BTB has LRU replacement policy
ITLB has LRU replacement policy
DTLB has LRU replacement policy
CPU 0 STLB arbitrary stride prefetcher
STLB has LRU replacement policy
L1I has LRU replacement policy
L1D has LRU replacement policy
L2C has LRU replacement policy
LLC has LRU replacement policy
Heartbeat CPU 0 instructions: 10000003 cycles: 2839745 heartbeat IPC: 3.52144 cumulative IPC: 3.52144 (Simulation time: 0 hr 0 min 16 sec) 
Heartbeat CPU 0 instructions: 20000003 cycles: 5654765 heartbeat IPC: 3.55237 cumulative IPC: 3.53684 (Simulation time: 0 hr 0 min 33 sec) 

Warmup complete CPU 0 instructions: 25000004 cycles: 7065725 (Simulation time: 0 hr 0 min 41 sec) 

Heartbeat CPU 0 instructions: 30000002 cycles: 23380545 heartbeat IPC: 0.56415 cumulative IPC: 0.30647 (Simulation time: 0 hr 1 min 2 sec) 
Heartbeat CPU 0 instructions: 40000001 cycles: 57847296 heartbeat IPC: 0.290135 cumulative IPC: 0.295383 (Simulation time: 0 hr 1 min 45 sec) 
Heartbeat CPU 0 instructions: 50000003 cycles: 91173376 heartbeat IPC: 0.300065 cumulative IPC: 0.297238 (Simulation time: 0 hr 2 min 27 sec) 
Finished CPU 0 instructions: 25000003 cycles: 84107652 cumulative IPC: 0.297238 (Simulation time: 0 hr 2 min 27 sec) 

ChampSim completed all CPUs

Region of Interest Statistics

CPU 0 cumulative IPC: 0.297238 instructions: 25000003 cycles: 84107652
ITLB TOTAL     ACCESS:    4421973  HIT:    4421973  MISS:          0  HIT %:        100  MISS %:          0   MPKI: 0
ITLB LOAD TRANSLATION ACCESS:    4421973  HIT:    4421973  MISS:          0  HIT %:        100  MISS %:          0   MPKI: 0
ITLB PREFETCH  REQUESTED:          0  ISSUED:          0  USEFUL:          0  USELESS:          0
ITLB USEFUL LOAD PREFETCHES:          0 PREFETCH ISSUED TO LOWER LEVEL:          0  ACCURACY: -nan
ITLB TIMELY PREFETCHES:          0 LATE PREFETCHES: 0 DROPPED PREFETCHES: 0
ITLB PREFETCHES SAME FILL-ORIGIN LEVEL: 0 DIFFERENT FILL-ORIGIN LEVEL: 0
ITLB AVERAGE MISS LATENCY: -nan cycles
ITLB RQ	ACCESS:    4777259	FORWARD:          0	MERGED:     355286	TO_CACHE:    4421973

DTLB TOTAL     ACCESS:    3694774  HIT:    3031822  MISS:     662952  HIT %:     82.057  MISS %:     17.943   MPKI: 26.5181
DTLB LOAD TRANSLATION ACCESS:    3694774  HIT:    3031822  MISS:     662952  HIT %:     82.057  MISS %:     17.943   MPKI: 26.5181
DTLB PREFETCH  REQUESTED:          0  ISSUED:          0  USEFUL:          0  USELESS:          0
DTLB USEFUL LOAD PREFETCHES:          0 PREFETCH ISSUED TO LOWER LEVEL:          0  ACCURACY: -nan
DTLB TIMELY PREFETCHES:          0 LATE PREFETCHES: 0 DROPPED PREFETCHES: 0
DTLB PREFETCHES SAME FILL-ORIGIN LEVEL: 0 DIFFERENT FILL-ORIGIN LEVEL: 0
DTLB AVERAGE MISS LATENCY: 42.0168 cycles
DTLB RQ	ACCESS:    4298151	FORWARD:          0	MERGED:     591485	TO_CACHE:    3706666

STLB TOTAL     ACCESS:    1333731  HIT:     153448  MISS:    1180283  HIT %:    11.5052  MISS %:    88.4948   MPKI: 47.2113
STLB LOAD TRANSLATION ACCESS:     662952  HIT:     147624  MISS:     515328  HIT %:    22.2677  MISS %:    77.7323   MPKI: 20.6131
STLB PREFETCH TRANSLATION ACCESS:     670779  HIT:       5824  MISS:     664955  HIT %:   0.868244  MISS %:    99.1318   MPKI: 26.5982
STLB PREFETCH  REQUESTED:    1118530  ISSUED:    1022276  USEFUL:      59080  USELESS:     605917
STLB USEFUL LOAD PREFETCHES:      59080 PREFETCH ISSUED TO LOWER LEVEL:     871537  ACCURACY: 6.77883
STLB TIMELY PREFETCHES:      59080 LATE PREFETCHES: 16441 DROPPED PREFETCHES: 190147
STLB PREFETCHES SAME FILL-ORIGIN LEVEL: 871537 DIFFERENT FILL-ORIGIN LEVEL: 0
STLB AVERAGE MISS LATENCY: 112.955 cycles
STLB RQ	ACCESS:     662953	FORWARD:          0	MERGED:          0	TO_CACHE:     662953
STLB PQ	ACCESS:    1022276	FORWARD:          0	MERGED:      76233	TO_CACHE:     946043

STLB Hit, L1D data hit: 0
STLB Hit, L2C data hit: 0
STLB Hit, LLC data hit: 0
STLB Hit, LLC data miss: 0
STLB STLB hints to L2: 0
L1D TOTAL     ACCESS:    4281935  HIT:    3076629  MISS:    1205306  HIT %:    71.8514  MISS %:    28.1486   MPKI: 48.2122
L1D LOAD      ACCESS:    3173271  HIT:    2037329  MISS:    1135942  HIT %:    64.2028  MISS %:    35.7972   MPKI: 45.4377
L1D RFO       ACCESS:    1108664  HIT:    1039300  MISS:      69364  HIT %:    93.7435  MISS %:    6.25654   MPKI: 2.77456
L1D PREFETCH  REQUESTED:          0  ISSUED:          0  USEFUL:          0  USELESS:          0
L1D USEFUL LOAD PREFETCHES:          0 PREFETCH ISSUED TO LOWER LEVEL:          0  ACCURACY: -nan
L1D TIMELY PREFETCHES:          0 LATE PREFETCHES: 0 DROPPED PREFETCHES: 0
L1D PREFETCHES SAME FILL-ORIGIN LEVEL: 0 DIFFERENT FILL-ORIGIN LEVEL: 0
L1D AVERAGE MISS LATENCY: 125.485 cycles
L1D RQ	ACCESS:    6169154	FORWARD:          0	MERGED:    2907528	TO_CACHE:    3189485
L1D WQ	ACCESS:    1108674	FORWARD:      72141	MERGED:          8	TO_CACHE:    1108666

L1D UNIQUE REGIONS ACCESSED: 0
L1D REGIONS CONFLICTS: 0
L1D Cross Page Prefetch Requests: 0
L1D Same Page Prefetch Requests: 0
L1D ROI Sum of L1D PQ occupancy: 0
L1D PREFETCHES PUSHED FROM L2C: 0
L1I TOTAL     ACCESS:    4777259  HIT:    4777259  MISS:          0  HIT %:        100  MISS %:          0   MPKI: 0
L1I LOAD      ACCESS:    4777259  HIT:    4777259  MISS:          0  HIT %:        100  MISS %:          0   MPKI: 0
L1I PREFETCH  REQUESTED:          0  ISSUED:          0  USEFUL:          0  USELESS:          0
L1I USEFUL LOAD PREFETCHES:          0 PREFETCH ISSUED TO LOWER LEVEL:          0  ACCURACY: -nan
L1I TIMELY PREFETCHES:          0 LATE PREFETCHES: 0 DROPPED PREFETCHES: 0
L1I PREFETCHES SAME FILL-ORIGIN LEVEL: 0 DIFFERENT FILL-ORIGIN LEVEL: 0
L1I AVERAGE MISS LATENCY: -nan cycles
L1I RQ	ACCESS:    7028420	FORWARD:          0	MERGED:    2251161	TO_CACHE:    4777259

BTB TOTAL     ACCESS:    3283963  HIT:    3283955  MISS:          8  HIT %:    99.9998  MISS %: 0.000243608   MPKI: 0.00032
BTB BRANCH_DIRECT_JUMP	ACCESS:     568310  HIT:     568308  MISS:          2
BTB BRANCH_INDIRECT	ACCESS:          0  HIT:          0  MISS:          0
BTB BRANCH_CONDITIONAL	ACCESS:    1606985  HIT:    1606981  MISS:          4
BTB BRANCH_DIRECT_CALL	ACCESS:     554334  HIT:     554333  MISS:          1
BTB BRANCH_INDIRECT_CALL	ACCESS:          0  HIT:          0  MISS:          0
BTB BRANCH_RETURN	ACCESS:     554334  HIT:     554333  MISS:          1
BTB BRANCH_OTHER ACCESS:          0  HIT:          0  MISS:          0

L2C TOTAL     ACCESS:    3266800  HIT:    2077022  MISS:    1189778  HIT %:    63.5797  MISS %:    36.4203   MPKI: 47.5911
L2C LOAD      ACCESS:    1135942  HIT:     397058  MISS:     738884  HIT %:    34.9541  MISS %:    65.0459   MPKI: 29.5554
L2C DATA LOAD MPKI: 29.5554
L2C INSTRUCTION LOAD MPKI: 0
L2C RFO       ACCESS:      69364  HIT:      33090  MISS:      36274  HIT %:    47.7049  MISS %:    52.2951   MPKI: 1.45096
L2C WRITEBACK ACCESS:     554350  HIT:     554350  MISS:          0  HIT %:        100  MISS %:          0   MPKI: 0
L2C LOAD TRANSLATION ACCESS:     514320  HIT:     429630  MISS:      84690  HIT %:    83.5336  MISS %:    16.4664   MPKI: 3.3876
L2C PREFETCH TRANSLATION ACCESS:     992824  HIT:     662894  MISS:     329930  HIT %:    66.7685  MISS %:    33.2315   MPKI: 13.1972
L2C PREFETCH  REQUESTED:          0  ISSUED:          0  USEFUL:     244009  USELESS:      86029
L2C USEFUL LOAD PREFETCHES:     244009 PREFETCH ISSUED TO LOWER LEVEL:          0  ACCURACY: inf
L2C TIMELY PREFETCHES:     244009 LATE PREFETCHES: 0 DROPPED PREFETCHES: 0
L2C PREFETCHES SAME FILL-ORIGIN LEVEL: 0 DIFFERENT FILL-ORIGIN LEVEL: 0
L2C AVERAGE MISS LATENCY: 125.186 cycles
L2C RQ	ACCESS:    2712452	FORWARD:          0	MERGED:          0	TO_CACHE:    2712452
L2C WQ	ACCESS:     554350	FORWARD:          0	MERGED:          0	TO_CACHE:     554350

L2C Instructions Evicting Data 0
L2C Translations Evicting Data 240805
L2C Data Evicting Data 534523
L2C Instructions Evicting Instructions 0
L2C Translations Evicting Instructions 0
L2C Data Evicting Instructions 0
L2C Instructions Evicting Translations 0
L2C Translations Evicting Translations 173815
L2C Data Evicting Translations 240635
L2C Dense regions hint from L2: 0
PSCL5 TOTAL     ACCESS:    1370438  HIT:    1370438  MISS:          0  HIT %:        100  MISS %:          0   MPKI: 0
PSCL5 LOAD TRANSLATION ACCESS:     498894  HIT:     498894  MISS:          0  HIT %:        100  MISS %:          0   MPKI: 0
PSCL5 PREFETCH TRANSLATION ACCESS:     871544  HIT:     871544  MISS:          0  HIT %:        100  MISS %:          0   MPKI: 0
PSCL5 PREFETCH  REQUESTED:          0  ISSUED:          0  USEFUL:          0  USELESS:          0
PSCL5 USEFUL LOAD PREFETCHES:          0 PREFETCH ISSUED TO LOWER LEVEL:          0  ACCURACY: -nan
PSCL5 TIMELY PREFETCHES:          0 LATE PREFETCHES: 0 DROPPED PREFETCHES: 0
PSCL5 PREFETCHES SAME FILL-ORIGIN LEVEL: 0 DIFFERENT FILL-ORIGIN LEVEL: 0

PSCL4 TOTAL     ACCESS:    1370438  HIT:    1370438  MISS:          0  HIT %:        100  MISS %:          0   MPKI: 0
PSCL4 LOAD TRANSLATION ACCESS:     498894  HIT:     498894  MISS:          0  HIT %:        100  MISS %:          0   MPKI: 0
PSCL4 PREFETCH TRANSLATION ACCESS:     871544  HIT:     871544  MISS:          0  HIT %:        100  MISS %:          0   MPKI: 0
PSCL4 PREFETCH  REQUESTED:          0  ISSUED:          0  USEFUL:          0  USELESS:          0
PSCL4 USEFUL LOAD PREFETCHES:          0 PREFETCH ISSUED TO LOWER LEVEL:          0  ACCURACY: -nan
PSCL4 TIMELY PREFETCHES:          0 LATE PREFETCHES: 0 DROPPED PREFETCHES: 0
PSCL4 PREFETCHES SAME FILL-ORIGIN LEVEL: 0 DIFFERENT FILL-ORIGIN LEVEL: 0

PSCL3 TOTAL     ACCESS:    1369692  HIT:    1369692  MISS:          0  HIT %:        100  MISS %:          0   MPKI: 0
PSCL3 LOAD TRANSLATION ACCESS:     498894  HIT:     498894  MISS:          0  HIT %:        100  MISS %:          0   MPKI: 0
PSCL3 PREFETCH TRANSLATION ACCESS:     870798  HIT:     870798  MISS:          0  HIT %:        100  MISS %:          0   MPKI: 0
PSCL3 PREFETCH  REQUESTED:          0  ISSUED:          0  USEFUL:          0  USELESS:          0
PSCL3 USEFUL LOAD PREFETCHES:          0 PREFETCH ISSUED TO LOWER LEVEL:          0  ACCURACY: -nan
PSCL3 TIMELY PREFETCHES:          0 LATE PREFETCHES: 0 DROPPED PREFETCHES: 0
PSCL3 PREFETCHES SAME FILL-ORIGIN LEVEL: 0 DIFFERENT FILL-ORIGIN LEVEL: 0

PSCL2 TOTAL     ACCESS:    1308423  HIT:    1229481  MISS:      78942  HIT %:    93.9666  MISS %:    6.03337   MPKI: 3.15768
PSCL2 LOAD TRANSLATION ACCESS:     562409  HIT:     483467  MISS:      78942  HIT %:    85.9636  MISS %:    14.0364   MPKI: 3.15768
PSCL2 PREFETCH TRANSLATION ACCESS:     746014  HIT:     746014  MISS:          0  HIT %:        100  MISS %:          0   MPKI: 0
PSCL2 PREFETCH  REQUESTED:          0  ISSUED:          0  USEFUL:          0  USELESS:          0
PSCL2 USEFUL LOAD PREFETCHES:          0 PREFETCH ISSUED TO LOWER LEVEL:          0  ACCURACY: -nan
PSCL2 TIMELY PREFETCHES:          0 LATE PREFETCHES: 0 DROPPED PREFETCHES: 0
PSCL2 PREFETCHES SAME FILL-ORIGIN LEVEL: 0 DIFFERENT FILL-ORIGIN LEVEL: 0

LLC TOTAL     ACCESS:    1744752  HIT:    1082514  MISS:     662238  HIT %:     62.044  MISS %:     37.956   MPKI: 26.4895
LLC LOAD      ACCESS:     738884  HIT:      97348  MISS:     641536  HIT %:     13.175  MISS %:     86.825   MPKI: 25.6614
LLC RFO       ACCESS:      36274  HIT:      36270  MISS:          4  HIT %:     99.989  MISS %:  0.0110272   MPKI: 0.00016
LLC WRITEBACK ACCESS:     554974  HIT:     554974  MISS:          0  HIT %:        100  MISS %:          0   MPKI: 0
LLC LOAD TRANSLATION ACCESS:      84690  HIT:      83181  MISS:       1509  HIT %:    98.2182  MISS %:    1.78179   MPKI: 0.06036
LLC PREFETCH TRANSLATION ACCESS:     329930  HIT:     310741  MISS:      19189  HIT %:    94.1839  MISS %:    5.81608   MPKI: 0.76756
LLC PREFETCH  REQUESTED:          0  ISSUED:          0  USEFUL:      12126  USELESS:       6831
LLC USEFUL LOAD PREFETCHES:      12126 PREFETCH ISSUED TO LOWER LEVEL:          0  ACCURACY: inf
LLC TIMELY PREFETCHES:      12126 LATE PREFETCHES: 0 DROPPED PREFETCHES: 0
LLC PREFETCHES SAME FILL-ORIGIN LEVEL: 0 DIFFERENT FILL-ORIGIN LEVEL: 0
LLC AVERAGE MISS LATENCY: 170.828 cycles
LLC RQ	ACCESS:    1189779	FORWARD:          0	MERGED:          0	TO_CACHE:    1189779
LLC WQ	ACCESS:     554974	FORWARD:          0	MERGED:          0	TO_CACHE:     554974

LLC Dense regions hint to LLC: 0

RAW hits: 481381
Loads Generated: 6650538
Loads sent to L1D: 6169154
Stores Generated: 1108672
Stores sent to L1D: 1108674
Major fault: 0 Minor fault: 23115
Allocated PAGES: 23115
CPU 0 STLB arbitrary stride prefetcher final stats
Degree: 7

DRAM Statistics
 CHANNEL 0
 RQ ROW_BUFFER_HIT:       1330  ROW_BUFFER_MISS:     660908
 DBUS_CONGESTED:          5
 WQ ROW_BUFFER_HIT:     249396  ROW_BUFFER_MISS:     306099  FULL:          0

 AVG_CONGESTED_CYCLE: 5
 All warmup complete: 2
Channel 0 Bank busy for read cycles: 0
Channel 0 Bank busy for write cycles: 0
Channel 0
Rank 0
0banks busy for read cycles: 1624909
0banks busy for write cycles: 38811
1banks busy for read cycles: 18952333
1banks busy for write cycles: 3292675
2banks busy for read cycles: 13403002
2banks busy for write cycles: 5404913
3banks busy for read cycles: 12020995
3banks busy for write cycles: 8564048
4banks busy for read cycles: 4259972
4banks busy for write cycles: 8296692
5banks busy for read cycles: 68344
5banks busy for write cycles: 4130615
6banks busy for read cycles: 232
6banks busy for write cycles: 2043661
7banks busy for read cycles: 0
7banks busy for write cycles: 1156041
8banks busy for read cycles: 0
8banks busy for write cycles: 850410

CPU 0 Branch Prediction Accuracy: 99.9685% MPKI: 0.04912 Average ROB Occupancy at Mispredict: 155.717
Branch types
NOT_BRANCH: 21105636 84.4225%
BRANCH_DIRECT_JUMP: 568310 2.27324%
BRANCH_INDIRECT: 0 0%
BRANCH_CONDITIONAL: 2217336 8.86934%
BRANCH_DIRECT_CALL: 554334 2.21734%
BRANCH_INDIRECT_CALL: 0 0%
BRANCH_RETURN: 554334 2.21734%
BRANCH_OTHER: 0 0%

DRAM PAGES: 1048576
Allocated PAGES: 23115
