
*** ChampSim Multicore Out-of-Order Simulator ***

Warmup Instructions: 25000000
Simulation Instructions: 25000000
Number of CPUs: 1
LLC sets: 2048
LLC ways: 16
Off-chip DRAM Size: 4096 MB Channels: 1 Width: 64-bit Data Rate: 6400 MT/s
CPU 0 runs ./traces/trace2.champsimtrace.xz
.xz
CPU 0 Bimodal branch predictor
BTB has LRU replacement policy
ITLB has LRU replacement policy
DTLB has LRU replacement policy
STLB has LRU replacement policy
L1I has LRU replacement policy
CPU 0 L1D Complex-Stride prefetcher
L1D has LRU replacement policy
L2C has LRU replacement policy
LLC has LRU replacement policy
Heartbeat CPU 0 instructions: 10000002 cycles: 3739623 heartbeat IPC: 2.67407 cumulative IPC: 2.67407 (Simulation time: 0 hr 0 min 43 sec) 
Heartbeat CPU 0 instructions: 20000001 cycles: 7480856 heartbeat IPC: 2.67292 cumulative IPC: 2.67349 (Simulation time: 0 hr 1 min 27 sec) 

Warmup complete CPU 0 instructions: 25000001 cycles: 9350612 (Simulation time: 0 hr 1 min 47 sec) 

Heartbeat CPU 0 instructions: 30000001 cycles: 25669749 heartbeat IPC: 0.549786 cumulative IPC: 0.306389 (Simulation time: 0 hr 2 min 18 sec) 
Heartbeat CPU 0 instructions: 40000002 cycles: 57869647 heartbeat IPC: 0.31056 cumulative IPC: 0.309157 (Simulation time: 0 hr 3 min 18 sec) 
Heartbeat CPU 0 instructions: 50000000 cycles: 88967726 heartbeat IPC: 0.321563 cumulative IPC: 0.314003 (Simulation time: 0 hr 4 min 6 sec) 
Finished CPU 0 instructions: 25000000 cycles: 79617136 cumulative IPC: 0.314003 (Simulation time: 0 hr 4 min 6 sec) 

ChampSim completed all CPUs

Region of Interest Statistics

CPU 0 cumulative IPC: 0.314003 instructions: 25000000 cycles: 79617136
ITLB TOTAL     ACCESS:    4641597  HIT:    4641597  MISS:          0  HIT %:        100  MISS %:          0   MPKI: 0
ITLB LOAD TRANSLATION ACCESS:    4641597  HIT:    4641597  MISS:          0  HIT %:        100  MISS %:          0   MPKI: 0
ITLB PREFETCH  REQUESTED:          0  ISSUED:          0  USEFUL:          0  USELESS:          0
ITLB USEFUL LOAD PREFETCHES:          0 PREFETCH ISSUED TO LOWER LEVEL:          0  ACCURACY: -nan
ITLB TIMELY PREFETCHES:          0 LATE PREFETCHES: 0 DROPPED PREFETCHES: 0
ITLB PREFETCHES SAME FILL-ORIGIN LEVEL: 0 DIFFERENT FILL-ORIGIN LEVEL: 0
ITLB AVERAGE MISS LATENCY: -nan cycles
ITLB RQ	ACCESS:    4727012	FORWARD:          0	MERGED:      85416	TO_CACHE:    4641596

DTLB TOTAL     ACCESS:    3870079  HIT:    3836063  MISS:      34016  HIT %:    99.1211  MISS %:   0.878948   MPKI: 1.36064
DTLB LOAD TRANSLATION ACCESS:    3870079  HIT:    3836063  MISS:      34016  HIT %:    99.1211  MISS %:   0.878948   MPKI: 1.36064
DTLB PREFETCH  REQUESTED:          0  ISSUED:          0  USEFUL:          0  USELESS:          0
DTLB USEFUL LOAD PREFETCHES:          0 PREFETCH ISSUED TO LOWER LEVEL:          0  ACCURACY: -nan
DTLB TIMELY PREFETCHES:          0 LATE PREFETCHES: 0 DROPPED PREFETCHES: 0
DTLB PREFETCHES SAME FILL-ORIGIN LEVEL: 0 DIFFERENT FILL-ORIGIN LEVEL: 0
DTLB AVERAGE MISS LATENCY: 106.343 cycles
DTLB RQ	ACCESS:    4554107	FORWARD:          0	MERGED:     683912	TO_CACHE:    3870195

STLB TOTAL     ACCESS:    2776416  HIT:    2743738  MISS:      32678  HIT %:     98.823  MISS %:    1.17699   MPKI: 1.30712
STLB LOAD TRANSLATION ACCESS:      34016  HIT:       1342  MISS:      32674  HIT %:     3.9452  MISS %:    96.0548   MPKI: 1.30696
STLB TRANSLATION FROM L1D PREFETCHER ACCESS:    2742400  HIT:    2742396  MISS:          4  HIT %:    99.9999  MISS %: 0.000145858   MPKI: 0.00016
STLB PREFETCH  REQUESTED:          0  ISSUED:          0  USEFUL:          4  USELESS:          0
STLB USEFUL LOAD PREFETCHES:          4 PREFETCH ISSUED TO LOWER LEVEL:          0  ACCURACY: inf
STLB TIMELY PREFETCHES:          4 LATE PREFETCHES: 0 DROPPED PREFETCHES: 0
STLB PREFETCHES SAME FILL-ORIGIN LEVEL: 0 DIFFERENT FILL-ORIGIN LEVEL: 0
STLB AVERAGE MISS LATENCY: 101.353 cycles
STLB RQ	ACCESS:    9983404	FORWARD:          0	MERGED:    7206988	TO_CACHE:    2776416

STLB Hit, L1D data hit: 0
STLB Hit, L2C data hit: 0
STLB Hit, LLC data hit: 0
STLB Hit, LLC data miss: 0
STLB STLB hints to L2: 0
L1D TOTAL     ACCESS:   12076046  HIT:   10312797  MISS:    1763249  HIT %:    85.3988  MISS %:    14.6012   MPKI: 70.53
L1D LOAD      ACCESS:    4176339  HIT:    3904550  MISS:     271789  HIT %:    93.4922  MISS %:    6.50783   MPKI: 10.8716
L1D RFO       ACCESS:     333364  HIT:     332691  MISS:        673  HIT %:    99.7981  MISS %:   0.201881   MPKI: 0.02692
L1D PREFETCH  ACCESS:    7566343  HIT:    6075556  MISS:    1490787  HIT %:    80.2971  MISS %:    19.7029   MPKI: 59.6315
AGUS PREFETCH L1 MISS: 0
L1D PREFETCH  REQUESTED:   25365112  ISSUED:   25364954  USEFUL:    1477384  USELESS:      13397
L1D USEFUL LOAD PREFETCHES:    1477384 PREFETCH ISSUED TO LOWER LEVEL:    1643218  ACCURACY: 89.908
L1D TIMELY PREFETCHES:    1477384 LATE PREFETCHES: 152421 DROPPED PREFETCHES: 0
L1D PREFETCHES SAME FILL-ORIGIN LEVEL: 1643218 DIFFERENT FILL-ORIGIN LEVEL: 0
L1D AVERAGE MISS LATENCY: 121.395 cycles
L1D RQ	ACCESS:    8972919	FORWARD:          0	MERGED:    4750635	TO_CACHE:    4220739
L1D WQ	ACCESS:     370377	FORWARD:       1575	MERGED:      37009	TO_CACHE:     333368
L1D PQ	ACCESS:   15415566	FORWARD:          0	MERGED:    5466148	TO_CACHE:    9949388

L1D UNIQUE REGIONS ACCESSED: 0
L1D REGIONS CONFLICTS: 0
L1D Cross Page Prefetch Requests: 0
L1D Same Page Prefetch Requests: 38065033
L1D ROI Sum of L1D PQ occupancy: 135791657
L1D PREFETCHES PUSHED FROM L2C: 0
L1I TOTAL     ACCESS:    4727012  HIT:    4727012  MISS:          0  HIT %:        100  MISS %:          0   MPKI: 0
L1I LOAD      ACCESS:    4727012  HIT:    4727012  MISS:          0  HIT %:        100  MISS %:          0   MPKI: 0
L1I PREFETCH  REQUESTED:          0  ISSUED:          0  USEFUL:          0  USELESS:          0
L1I USEFUL LOAD PREFETCHES:          0 PREFETCH ISSUED TO LOWER LEVEL:          0  ACCURACY: -nan
L1I TIMELY PREFETCHES:          0 LATE PREFETCHES: 0 DROPPED PREFETCHES: 0
L1I PREFETCHES SAME FILL-ORIGIN LEVEL: 0 DIFFERENT FILL-ORIGIN LEVEL: 0
L1I AVERAGE MISS LATENCY: -nan cycles
L1I RQ	ACCESS:    7106108	FORWARD:          0	MERGED:    2379096	TO_CACHE:    4727012

BTB TOTAL     ACCESS:    5953193  HIT:    5953095  MISS:         98  HIT %:    99.9984  MISS %: 0.00164618   MPKI: 0.00392
BTB BRANCH_DIRECT_JUMP	ACCESS:      85874  HIT:      85848  MISS:         26
BTB BRANCH_INDIRECT	ACCESS:          0  HIT:          0  MISS:          0
BTB BRANCH_CONDITIONAL	ACCESS:    5783213  HIT:    5783164  MISS:         49
BTB BRANCH_DIRECT_CALL	ACCESS:      42053  HIT:      42043  MISS:         10
BTB BRANCH_INDIRECT_CALL	ACCESS:          0  HIT:          0  MISS:          0
BTB BRANCH_RETURN	ACCESS:      42053  HIT:      42040  MISS:         13
BTB BRANCH_OTHER ACCESS:          0  HIT:          0  MISS:          0

L2C TOTAL     ACCESS:    1799333  HIT:      33172  MISS:    1766161  HIT %:    1.84357  MISS %:    98.1564   MPKI: 70.6464
L2C LOAD      ACCESS:     119368  HIT:       1096  MISS:     118272  HIT %:   0.918169  MISS %:    99.0818   MPKI: 4.73088
L2C DATA LOAD MPKI: 4.73088
L2C INSTRUCTION LOAD MPKI: 0
L2C RFO       ACCESS:        663  HIT:         14  MISS:        649  HIT %:    2.11161  MISS %:    97.8884   MPKI: 0.02596
L2C PREFETCH  ACCESS:    1643218  HIT:       3452  MISS:    1639766  HIT %:   0.210076  MISS %:    99.7899   MPKI: 65.5906
AGUS PREFETCH L1 MISS: 0
L2C DATA PREFETCH MPKI: 65.5906
L2C INSTRUCTION PREFETCH MPKI: 0
L2C WRITEBACK ACCESS:       2774  HIT:       2767  MISS:          7  HIT %:    99.7477  MISS %:   0.252343   MPKI: 0.00028
L2C LOAD TRANSLATION ACCESS:      33303  HIT:      25842  MISS:       7461  HIT %:    77.5966  MISS %:    22.4034   MPKI: 0.29844
L2C TRANSLATION FROM L1D PREFETCHER ACCESS:          7  HIT:          1  MISS:          6  HIT %:    14.2857  MISS %:    85.7143   MPKI: 0.00024
L2C PREFETCH  REQUESTED:          0  ISSUED:          0  USEFUL:        589  USELESS:    1638774
L2C USEFUL LOAD PREFETCHES:        589 PREFETCH ISSUED TO LOWER LEVEL:    1639766  ACCURACY: 0.0359198
L2C TIMELY PREFETCHES:        589 LATE PREFETCHES: 0 DROPPED PREFETCHES: 0
L2C PREFETCHES SAME FILL-ORIGIN LEVEL: 0 DIFFERENT FILL-ORIGIN LEVEL: 0
L2C AVERAGE MISS LATENCY: 106.668 cycles
L2C RQ	ACCESS:     153341	FORWARD:          0	MERGED:          0	TO_CACHE:     153341
L2C WQ	ACCESS:       2774	FORWARD:          0	MERGED:          0	TO_CACHE:       2774
L2C PQ	ACCESS:    1643218	FORWARD:          0	MERGED:          0	TO_CACHE:    1643218

L2C Instructions Evicting Data 0
L2C Translations Evicting Data 7438
L2C Data Evicting Data 1751263
L2C Instructions Evicting Instructions 0
L2C Translations Evicting Instructions 0
L2C Data Evicting Instructions 0
L2C Instructions Evicting Translations 0
L2C Translations Evicting Translations 29
L2C Data Evicting Translations 7424
L2C Dense regions hint from L2: 0
PSCL5 TOTAL     ACCESS:      32678  HIT:      32678  MISS:          0  HIT %:        100  MISS %:          0   MPKI: 0
PSCL5 LOAD TRANSLATION ACCESS:      32674  HIT:      32674  MISS:          0  HIT %:        100  MISS %:          0   MPKI: 0
PSCL5 TRANSLATION FROM L1D PREFETCHER ACCESS:          4  HIT:          4  MISS:          0  HIT %:        100  MISS %:          0   MPKI: 0
PSCL5 PREFETCH  REQUESTED:          0  ISSUED:          0  USEFUL:          0  USELESS:          0
PSCL5 USEFUL LOAD PREFETCHES:          0 PREFETCH ISSUED TO LOWER LEVEL:          0  ACCURACY: -nan
PSCL5 TIMELY PREFETCHES:          0 LATE PREFETCHES: 0 DROPPED PREFETCHES: 0
PSCL5 PREFETCHES SAME FILL-ORIGIN LEVEL: 0 DIFFERENT FILL-ORIGIN LEVEL: 0

PSCL4 TOTAL     ACCESS:      32678  HIT:      32678  MISS:          0  HIT %:        100  MISS %:          0   MPKI: 0
PSCL4 LOAD TRANSLATION ACCESS:      32674  HIT:      32674  MISS:          0  HIT %:        100  MISS %:          0   MPKI: 0
PSCL4 TRANSLATION FROM L1D PREFETCHER ACCESS:          4  HIT:          4  MISS:          0  HIT %:        100  MISS %:          0   MPKI: 0
PSCL4 PREFETCH  REQUESTED:          0  ISSUED:          0  USEFUL:          0  USELESS:          0
PSCL4 USEFUL LOAD PREFETCHES:          0 PREFETCH ISSUED TO LOWER LEVEL:          0  ACCURACY: -nan
PSCL4 TIMELY PREFETCHES:          0 LATE PREFETCHES: 0 DROPPED PREFETCHES: 0
PSCL4 PREFETCHES SAME FILL-ORIGIN LEVEL: 0 DIFFERENT FILL-ORIGIN LEVEL: 0

PSCL3 TOTAL     ACCESS:      32678  HIT:      32678  MISS:          0  HIT %:        100  MISS %:          0   MPKI: 0
PSCL3 LOAD TRANSLATION ACCESS:      32674  HIT:      32674  MISS:          0  HIT %:        100  MISS %:          0   MPKI: 0
PSCL3 TRANSLATION FROM L1D PREFETCHER ACCESS:          4  HIT:          4  MISS:          0  HIT %:        100  MISS %:          0   MPKI: 0
PSCL3 PREFETCH  REQUESTED:          0  ISSUED:          0  USEFUL:          0  USELESS:          0
PSCL3 USEFUL LOAD PREFETCHES:          0 PREFETCH ISSUED TO LOWER LEVEL:          0  ACCURACY: -nan
PSCL3 TIMELY PREFETCHES:          0 LATE PREFETCHES: 0 DROPPED PREFETCHES: 0
PSCL3 PREFETCHES SAME FILL-ORIGIN LEVEL: 0 DIFFERENT FILL-ORIGIN LEVEL: 0

PSCL2 TOTAL     ACCESS:      32678  HIT:      31948  MISS:        730  HIT %:    97.7661  MISS %:    2.23392   MPKI: 0.0292
PSCL2 LOAD TRANSLATION ACCESS:      32677  HIT:      31947  MISS:        730  HIT %:     97.766  MISS %:    2.23399   MPKI: 0.0292
PSCL2 TRANSLATION FROM L1D PREFETCHER ACCESS:          1  HIT:          1  MISS:          0  HIT %:        100  MISS %:          0   MPKI: 0
PSCL2 PREFETCH  REQUESTED:          0  ISSUED:          0  USEFUL:          0  USELESS:          0
PSCL2 USEFUL LOAD PREFETCHES:          0 PREFETCH ISSUED TO LOWER LEVEL:          0  ACCURACY: -nan
PSCL2 TIMELY PREFETCHES:          0 LATE PREFETCHES: 0 DROPPED PREFETCHES: 0
PSCL2 PREFETCHES SAME FILL-ORIGIN LEVEL: 0 DIFFERENT FILL-ORIGIN LEVEL: 0

LLC TOTAL     ACCESS:    1768923  HIT:       3417  MISS:    1765506  HIT %:   0.193168  MISS %:    99.8068   MPKI: 70.6202
LLC LOAD      ACCESS:     118272  HIT:        116  MISS:     118156  HIT %:   0.098079  MISS %:    99.9019   MPKI: 4.72624
LLC RFO       ACCESS:        649  HIT:          0  MISS:        649  HIT %:          0  MISS %:        100   MPKI: 0.02596
LLC PREFETCH  ACCESS:    1639766  HIT:        217  MISS:    1639549  HIT %:  0.0132336  MISS %:    99.9868   MPKI: 65.582
AGUS PREFETCH L1 MISS: 0
LLC WRITEBACK ACCESS:       2769  HIT:       2762  MISS:          7  HIT %:    99.7472  MISS %:   0.252799   MPKI: 0.00028
LLC LOAD TRANSLATION ACCESS:       7461  HIT:        321  MISS:       7140  HIT %:    4.30237  MISS %:    95.6976   MPKI: 0.2856
LLC TRANSLATION FROM L1D PREFETCHER ACCESS:          6  HIT:          1  MISS:          5  HIT %:    16.6667  MISS %:    83.3333   MPKI: 0.0002
LLC PREFETCH  REQUESTED:          0  ISSUED:          0  USEFUL:         65  USELESS:    1637407
LLC USEFUL LOAD PREFETCHES:         65 PREFETCH ISSUED TO LOWER LEVEL:    1639549  ACCURACY: 0.0039645
LLC TIMELY PREFETCHES:         65 LATE PREFETCHES: 0 DROPPED PREFETCHES: 0
LLC PREFETCHES SAME FILL-ORIGIN LEVEL: 0 DIFFERENT FILL-ORIGIN LEVEL: 0
LLC AVERAGE MISS LATENCY: 76.6385 cycles
LLC RQ	ACCESS:     126388	FORWARD:          0	MERGED:          0	TO_CACHE:     126388
LLC WQ	ACCESS:       2769	FORWARD:          0	MERGED:          0	TO_CACHE:       2769
LLC PQ	ACCESS:    1639766	FORWARD:          0	MERGED:          0	TO_CACHE:    1639766

LLC Dense regions hint to LLC: 0

RAW hits: 4028
Loads Generated: 8976947
Loads sent to L1D: 8972919
Stores Generated: 370377
Stores sent to L1D: 370377
Major fault: 0 Minor fault: 48857
Allocated PAGES: 48857
CPU 0 L1D complex stride prefetcher final stats
Degree: 5

DRAM Statistics
 CHANNEL 0
 RQ ROW_BUFFER_HIT:    1661042  ROW_BUFFER_MISS:     104457
 DBUS_CONGESTED:        301
 WQ ROW_BUFFER_HIT:        494  ROW_BUFFER_MISS:       2269  FULL:          0

 AVG_CONGESTED_CYCLE: 4
 All warmup complete: 2
Channel 0 Bank busy for read cycles: 0
Channel 0 Bank busy for write cycles: 0
Channel 0
Rank 0
0banks busy for read cycles: 34875063
0banks busy for write cycles: 1463
1banks busy for read cycles: 16827484
1banks busy for write cycles: 270801
2banks busy for read cycles: 11396520
2banks busy for write cycles: 102583
3banks busy for read cycles: 9278795
3banks busy for write cycles: 48599
4banks busy for read cycles: 3968217
4banks busy for write cycles: 21483
5banks busy for read cycles: 1575044
5banks busy for write cycles: 5653
6banks busy for read cycles: 1176577
6banks busy for write cycles: 2180
7banks busy for read cycles: 63906
7banks busy for write cycles: 1087
8banks busy for read cycles: 1451
8banks busy for write cycles: 231

CPU 0 Branch Prediction Accuracy: 99.1323% MPKI: 3.09396 Average ROB Occupancy at Mispredict: 111.795
Branch types
NOT_BRANCH: 16085563 64.3423%
BRANCH_DIRECT_JUMP: 85874 0.343496%
BRANCH_INDIRECT: 0 0%
BRANCH_CONDITIONAL: 8744101 34.9764%
BRANCH_DIRECT_CALL: 42053 0.168212%
BRANCH_INDIRECT_CALL: 0 0%
BRANCH_RETURN: 42053 0.168212%
BRANCH_OTHER: 0 0%

DRAM PAGES: 1048576
Allocated PAGES: 48857
