
*** ChampSim Multicore Out-of-Order Simulator ***

Warmup Instructions: 25000000
Simulation Instructions: 25000000
Number of CPUs: 1
LLC sets: 2048
LLC ways: 16
Off-chip DRAM Size: 4096 MB Channels: 1 Width: 64-bit Data Rate: 6400 MT/s
CPU 0 runs ./traces/trace2.champsimtrace.xz
.xz
CPU 0 Bimodal branch predictor
BTB has LRU replacement policy
ITLB has LRU replacement policy
DTLB has LRU replacement policy
STLB has LRU replacement policy
L1I has LRU replacement policy
CPU 0 L1D Optimized prefetcher
L1D has LRU replacement policy
L2C has LRU replacement policy
LLC has LRU replacement policy
Heartbeat CPU 0 instructions: 10000002 cycles: 3798770 heartbeat IPC: 2.63243 cumulative IPC: 2.63243 (Simulation time: 0 hr 0 min 28 sec) 
Heartbeat CPU 0 instructions: 20000001 cycles: 7599889 heartbeat IPC: 2.6308 cumulative IPC: 2.63162 (Simulation time: 0 hr 1 min 2 sec) 

Warmup complete CPU 0 instructions: 25000001 cycles: 9499594 (Simulation time: 0 hr 1 min 16 sec) 

2408 1919
3649 3009
4594 3710
 ----------------------------------
0.796927 0.878324 0.741799
prefetcehter = 2
 ----------------------------------
Heartbeat CPU 0 instructions: 30000001 cycles: 25835345 heartbeat IPC: 0.548382 cumulative IPC: 0.306077 (Simulation time: 0 hr 1 min 49 sec) 
Heartbeat CPU 0 instructions: 40000002 cycles: 58034717 heartbeat IPC: 0.310565 cumulative IPC: 0.309055 (Simulation time: 0 hr 2 min 49 sec) 
Heartbeat CPU 0 instructions: 50000000 cycles: 89133402 heartbeat IPC: 0.321557 cumulative IPC: 0.313937 (Simulation time: 0 hr 3 min 48 sec) 
Finished CPU 0 instructions: 25000000 cycles: 79633830 cumulative IPC: 0.313937 (Simulation time: 0 hr 3 min 48 sec) 

ChampSim completed all CPUs

Region of Interest Statistics

CPU 0 cumulative IPC: 0.313937 instructions: 25000000 cycles: 79633830
ITLB TOTAL     ACCESS:    4641825  HIT:    4641825  MISS:          0  HIT %:        100  MISS %:          0   MPKI: 0
ITLB LOAD TRANSLATION ACCESS:    4641825  HIT:    4641825  MISS:          0  HIT %:        100  MISS %:          0   MPKI: 0
ITLB PREFETCH  REQUESTED:          0  ISSUED:          0  USEFUL:          0  USELESS:          0
ITLB USEFUL LOAD PREFETCHES:          0 PREFETCH ISSUED TO LOWER LEVEL:          0  ACCURACY: -nan
ITLB TIMELY PREFETCHES:          0 LATE PREFETCHES: 0 DROPPED PREFETCHES: 0
ITLB PREFETCHES SAME FILL-ORIGIN LEVEL: 0 DIFFERENT FILL-ORIGIN LEVEL: 0
ITLB AVERAGE MISS LATENCY: -nan cycles
ITLB RQ	ACCESS:    4727242	FORWARD:          0	MERGED:      85417	TO_CACHE:    4641825

DTLB TOTAL     ACCESS:    3870075  HIT:    3836059  MISS:      34016  HIT %:    99.1211  MISS %:   0.878949   MPKI: 1.36064
DTLB LOAD TRANSLATION ACCESS:    3870075  HIT:    3836059  MISS:      34016  HIT %:    99.1211  MISS %:   0.878949   MPKI: 1.36064
DTLB PREFETCH  REQUESTED:          0  ISSUED:          0  USEFUL:          0  USELESS:          0
DTLB USEFUL LOAD PREFETCHES:          0 PREFETCH ISSUED TO LOWER LEVEL:          0  ACCURACY: -nan
DTLB TIMELY PREFETCHES:          0 LATE PREFETCHES: 0 DROPPED PREFETCHES: 0
DTLB PREFETCHES SAME FILL-ORIGIN LEVEL: 0 DIFFERENT FILL-ORIGIN LEVEL: 0
DTLB AVERAGE MISS LATENCY: 106.335 cycles
DTLB RQ	ACCESS:    4554107	FORWARD:          0	MERGED:     683916	TO_CACHE:    3870191

STLB TOTAL     ACCESS:    2774039  HIT:    2741353  MISS:      32686  HIT %:    98.8217  MISS %:    1.17828   MPKI: 1.30744
STLB LOAD TRANSLATION ACCESS:      34016  HIT:       1342  MISS:      32674  HIT %:     3.9452  MISS %:    96.0548   MPKI: 1.30696
STLB TRANSLATION FROM L1D PREFETCHER ACCESS:    2740023  HIT:    2740011  MISS:         12  HIT %:    99.9996  MISS %: 0.000437953   MPKI: 0.00048
STLB PREFETCH  REQUESTED:          0  ISSUED:          0  USEFUL:         12  USELESS:          0
STLB USEFUL LOAD PREFETCHES:         12 PREFETCH ISSUED TO LOWER LEVEL:          0  ACCURACY: inf
STLB TIMELY PREFETCHES:         12 LATE PREFETCHES: 0 DROPPED PREFETCHES: 0
STLB PREFETCHES SAME FILL-ORIGIN LEVEL: 0 DIFFERENT FILL-ORIGIN LEVEL: 0
STLB AVERAGE MISS LATENCY: 101.434 cycles
STLB RQ	ACCESS:    9976770	FORWARD:          0	MERGED:    7202731	TO_CACHE:    2774039

STLB Hit, L1D data hit: 0
STLB Hit, L2C data hit: 0
STLB Hit, LLC data hit: 0
STLB Hit, LLC data miss: 0
STLB STLB hints to L2: 0
L1D TOTAL     ACCESS:   12067917  HIT:   10304574  MISS:    1763343  HIT %:    85.3882  MISS %:    14.6118   MPKI: 70.5337
L1D LOAD      ACCESS:    4176324  HIT:    3904247  MISS:     272077  HIT %:    93.4853  MISS %:    6.51475   MPKI: 10.8831
L1D RFO       ACCESS:     333364  HIT:     332690  MISS:        674  HIT %:    99.7978  MISS %:   0.202181   MPKI: 0.02696
L1D PREFETCH  ACCESS:    7558229  HIT:    6067637  MISS:    1490592  HIT %:    80.2786  MISS %:    19.7214   MPKI: 59.6237
AGUS PREFETCH L1 MISS: 0
L1D PREFETCH  REQUESTED:   25345790  ISSUED:   25345740  USEFUL:    1477102  USELESS:      13472
L1D USEFUL LOAD PREFETCHES:    1477102 PREFETCH ISSUED TO LOWER LEVEL:    1643273  ACCURACY: 89.8878
L1D TIMELY PREFETCHES:    1477102 LATE PREFETCHES: 152671 DROPPED PREFETCHES: 0
L1D PREFETCHES SAME FILL-ORIGIN LEVEL: 1643273 DIFFERENT FILL-ORIGIN LEVEL: 0
L1D AVERAGE MISS LATENCY: 121.405 cycles
L1D RQ	ACCESS:    8972933	FORWARD:          0	MERGED:    4750649	TO_CACHE:    4220739
L1D WQ	ACCESS:     370377	FORWARD:       1575	MERGED:      37009	TO_CACHE:     333368
L1D PQ	ACCESS:   15402986	FORWARD:          0	MERGED:    5460202	TO_CACHE:    9942754

L1D UNIQUE REGIONS ACCESSED: 0
L1D REGIONS CONFLICTS: 0
L1D Cross Page Prefetch Requests: 0
L1D Same Page Prefetch Requests: 15402986
L1D ROI Sum of L1D PQ occupancy: 135727465
L1D PREFETCHES PUSHED FROM L2C: 0
L1I TOTAL     ACCESS:    4727241  HIT:    4727241  MISS:          0  HIT %:        100  MISS %:          0   MPKI: 0
L1I LOAD      ACCESS:    4727241  HIT:    4727241  MISS:          0  HIT %:        100  MISS %:          0   MPKI: 0
L1I PREFETCH  REQUESTED:          0  ISSUED:          0  USEFUL:          0  USELESS:          0
L1I USEFUL LOAD PREFETCHES:          0 PREFETCH ISSUED TO LOWER LEVEL:          0  ACCURACY: -nan
L1I TIMELY PREFETCHES:          0 LATE PREFETCHES: 0 DROPPED PREFETCHES: 0
L1I PREFETCHES SAME FILL-ORIGIN LEVEL: 0 DIFFERENT FILL-ORIGIN LEVEL: 0
L1I AVERAGE MISS LATENCY: -nan cycles
L1I RQ	ACCESS:    7106352	FORWARD:          0	MERGED:    2379110	TO_CACHE:    4727242

BTB TOTAL     ACCESS:    5953193  HIT:    5953095  MISS:         98  HIT %:    99.9984  MISS %: 0.00164618   MPKI: 0.00392
BTB BRANCH_DIRECT_JUMP	ACCESS:      85874  HIT:      85848  MISS:         26
BTB BRANCH_INDIRECT	ACCESS:          0  HIT:          0  MISS:          0
BTB BRANCH_CONDITIONAL	ACCESS:    5783213  HIT:    5783164  MISS:         49
BTB BRANCH_DIRECT_CALL	ACCESS:      42053  HIT:      42043  MISS:         10
BTB BRANCH_INDIRECT_CALL	ACCESS:          0  HIT:          0  MISS:          0
BTB BRANCH_RETURN	ACCESS:      42053  HIT:      42040  MISS:         13
BTB BRANCH_OTHER ACCESS:          0  HIT:          0  MISS:          0

L2C TOTAL     ACCESS:    1799444  HIT:      33156  MISS:    1766288  HIT %:    1.84257  MISS %:    98.1574   MPKI: 70.6515
L2C LOAD      ACCESS:     119406  HIT:       1101  MISS:     118305  HIT %:   0.922064  MISS %:    99.0779   MPKI: 4.7322
L2C DATA LOAD MPKI: 4.7322
L2C INSTRUCTION LOAD MPKI: 0
L2C RFO       ACCESS:        664  HIT:         15  MISS:        649  HIT %:    2.25904  MISS %:     97.741   MPKI: 0.02596
L2C PREFETCH  ACCESS:    1643273  HIT:       3428  MISS:    1639845  HIT %:   0.208608  MISS %:    99.7914   MPKI: 65.5938
AGUS PREFETCH L1 MISS: 0
L2C DATA PREFETCH MPKI: 65.5938
L2C INSTRUCTION PREFETCH MPKI: 0
L2C WRITEBACK ACCESS:       2775  HIT:       2767  MISS:          8  HIT %:    99.7117  MISS %:   0.288288   MPKI: 0.00032
L2C LOAD TRANSLATION ACCESS:      33305  HIT:      25843  MISS:       7462  HIT %:     77.595  MISS %:     22.405   MPKI: 0.29848
L2C TRANSLATION FROM L1D PREFETCHER ACCESS:         21  HIT:          2  MISS:         19  HIT %:    9.52381  MISS %:    90.4762   MPKI: 0.00076
L2C PREFETCH  REQUESTED:          0  ISSUED:          0  USEFUL:        592  USELESS:    1631691
L2C USEFUL LOAD PREFETCHES:        592 PREFETCH ISSUED TO LOWER LEVEL:    1639845  ACCURACY: 0.036101
L2C TIMELY PREFETCHES:        592 LATE PREFETCHES: 0 DROPPED PREFETCHES: 0
L2C PREFETCHES SAME FILL-ORIGIN LEVEL: 0 DIFFERENT FILL-ORIGIN LEVEL: 0
L2C AVERAGE MISS LATENCY: 106.677 cycles
L2C RQ	ACCESS:     153395	FORWARD:          0	MERGED:          0	TO_CACHE:     153395
L2C WQ	ACCESS:       2775	FORWARD:          0	MERGED:          0	TO_CACHE:       2775
L2C PQ	ACCESS:    1643273	FORWARD:          0	MERGED:          0	TO_CACHE:    1643273

L2C Instructions Evicting Data 0
L2C Translations Evicting Data 7453
L2C Data Evicting Data 1751360
L2C Instructions Evicting Instructions 0
L2C Translations Evicting Instructions 0
L2C Data Evicting Instructions 0
L2C Instructions Evicting Translations 0
L2C Translations Evicting Translations 28
L2C Data Evicting Translations 7439
L2C Dense regions hint from L2: 0
PSCL5 TOTAL     ACCESS:      32686  HIT:      32686  MISS:          0  HIT %:        100  MISS %:          0   MPKI: 0
PSCL5 LOAD TRANSLATION ACCESS:      32674  HIT:      32674  MISS:          0  HIT %:        100  MISS %:          0   MPKI: 0
PSCL5 TRANSLATION FROM L1D PREFETCHER ACCESS:         12  HIT:         12  MISS:          0  HIT %:        100  MISS %:          0   MPKI: 0
PSCL5 PREFETCH  REQUESTED:          0  ISSUED:          0  USEFUL:          0  USELESS:          0
PSCL5 USEFUL LOAD PREFETCHES:          0 PREFETCH ISSUED TO LOWER LEVEL:          0  ACCURACY: -nan
PSCL5 TIMELY PREFETCHES:          0 LATE PREFETCHES: 0 DROPPED PREFETCHES: 0
PSCL5 PREFETCHES SAME FILL-ORIGIN LEVEL: 0 DIFFERENT FILL-ORIGIN LEVEL: 0

PSCL4 TOTAL     ACCESS:      32686  HIT:      32686  MISS:          0  HIT %:        100  MISS %:          0   MPKI: 0
PSCL4 LOAD TRANSLATION ACCESS:      32674  HIT:      32674  MISS:          0  HIT %:        100  MISS %:          0   MPKI: 0
PSCL4 TRANSLATION FROM L1D PREFETCHER ACCESS:         12  HIT:         12  MISS:          0  HIT %:        100  MISS %:          0   MPKI: 0
PSCL4 PREFETCH  REQUESTED:          0  ISSUED:          0  USEFUL:          0  USELESS:          0
PSCL4 USEFUL LOAD PREFETCHES:          0 PREFETCH ISSUED TO LOWER LEVEL:          0  ACCURACY: -nan
PSCL4 TIMELY PREFETCHES:          0 LATE PREFETCHES: 0 DROPPED PREFETCHES: 0
PSCL4 PREFETCHES SAME FILL-ORIGIN LEVEL: 0 DIFFERENT FILL-ORIGIN LEVEL: 0

PSCL3 TOTAL     ACCESS:      32503  HIT:      32500  MISS:          3  HIT %:    99.9908  MISS %: 0.00922992   MPKI: 0.00012
PSCL3 LOAD TRANSLATION ACCESS:      32492  HIT:      32489  MISS:          3  HIT %:    99.9908  MISS %: 0.00923304   MPKI: 0.00012
PSCL3 TRANSLATION FROM L1D PREFETCHER ACCESS:         11  HIT:         11  MISS:          0  HIT %:        100  MISS %:          0   MPKI: 0
PSCL3 PREFETCH  REQUESTED:          0  ISSUED:          0  USEFUL:          0  USELESS:          0
PSCL3 USEFUL LOAD PREFETCHES:          0 PREFETCH ISSUED TO LOWER LEVEL:          0  ACCURACY: -nan
PSCL3 TIMELY PREFETCHES:          0 LATE PREFETCHES: 0 DROPPED PREFETCHES: 0
PSCL3 PREFETCHES SAME FILL-ORIGIN LEVEL: 0 DIFFERENT FILL-ORIGIN LEVEL: 0

PSCL2 TOTAL     ACCESS:      32686  HIT:      31951  MISS:        735  HIT %:    97.7513  MISS %:    2.24867   MPKI: 0.0294
PSCL2 LOAD TRANSLATION ACCESS:      32682  HIT:      31947  MISS:        735  HIT %:    97.7511  MISS %:    2.24894   MPKI: 0.0294
PSCL2 TRANSLATION FROM L1D PREFETCHER ACCESS:          4  HIT:          4  MISS:          0  HIT %:        100  MISS %:          0   MPKI: 0
PSCL2 PREFETCH  REQUESTED:          0  ISSUED:          0  USEFUL:          0  USELESS:          0
PSCL2 USEFUL LOAD PREFETCHES:          0 PREFETCH ISSUED TO LOWER LEVEL:          0  ACCURACY: -nan
PSCL2 TIMELY PREFETCHES:          0 LATE PREFETCHES: 0 DROPPED PREFETCHES: 0
PSCL2 PREFETCHES SAME FILL-ORIGIN LEVEL: 0 DIFFERENT FILL-ORIGIN LEVEL: 0

LLC TOTAL     ACCESS:    1769050  HIT:       3430  MISS:    1765620  HIT %:   0.193889  MISS %:    99.8061   MPKI: 70.6248
LLC LOAD      ACCESS:     118305  HIT:        113  MISS:     118192  HIT %:  0.0955158  MISS %:    99.9045   MPKI: 4.72768
LLC RFO       ACCESS:        649  HIT:          0  MISS:        649  HIT %:          0  MISS %:        100   MPKI: 0.02596
LLC PREFETCH  ACCESS:    1639845  HIT:        232  MISS:    1639613  HIT %:  0.0141477  MISS %:    99.9859   MPKI: 65.5845
AGUS PREFETCH L1 MISS: 0
LLC WRITEBACK ACCESS:       2770  HIT:       2762  MISS:          8  HIT %:    99.7112  MISS %:   0.288809   MPKI: 0.00032
LLC LOAD TRANSLATION ACCESS:       7462  HIT:        322  MISS:       7140  HIT %:     4.3152  MISS %:    95.6848   MPKI: 0.2856
LLC TRANSLATION FROM L1D PREFETCHER ACCESS:         19  HIT:          1  MISS:         18  HIT %:    5.26316  MISS %:    94.7368   MPKI: 0.00072
LLC PREFETCH  REQUESTED:          0  ISSUED:          0  USEFUL:         62  USELESS:    1608740
LLC USEFUL LOAD PREFETCHES:         62 PREFETCH ISSUED TO LOWER LEVEL:    1639613  ACCURACY: 0.00378138
LLC TIMELY PREFETCHES:         62 LATE PREFETCHES: 0 DROPPED PREFETCHES: 0
LLC PREFETCHES SAME FILL-ORIGIN LEVEL: 0 DIFFERENT FILL-ORIGIN LEVEL: 0
LLC AVERAGE MISS LATENCY: 76.6481 cycles
LLC RQ	ACCESS:     126434	FORWARD:          0	MERGED:          0	TO_CACHE:     126434
LLC WQ	ACCESS:       2770	FORWARD:          0	MERGED:          0	TO_CACHE:       2770
LLC PQ	ACCESS:    1639845	FORWARD:          0	MERGED:          0	TO_CACHE:    1639845

LLC Dense regions hint to LLC: 0

RAW hits: 4028
Loads Generated: 8976961
Loads sent to L1D: 8972933
Stores Generated: 370377
Stores sent to L1D: 370377
Major fault: 0 Minor fault: 48857
Allocated PAGES: 48857
CPU 0 L1D optimized prefetcher final stats
Degree: 5

DRAM Statistics
 CHANNEL 0
 RQ ROW_BUFFER_HIT:    1661010  ROW_BUFFER_MISS:     104601
 DBUS_CONGESTED:        302
 WQ ROW_BUFFER_HIT:        500  ROW_BUFFER_MISS:       2266  FULL:          0

 AVG_CONGESTED_CYCLE: 4
 All warmup complete: 2
Channel 0 Bank busy for read cycles: 0
Channel 0 Bank busy for write cycles: 0
Channel 0
Rank 0
0banks busy for read cycles: 34883574
0banks busy for write cycles: 1463
1banks busy for read cycles: 16825192
1banks busy for write cycles: 270740
2banks busy for read cycles: 11409621
2banks busy for write cycles: 101916
3banks busy for read cycles: 9277950
3banks busy for write cycles: 49302
4banks busy for read cycles: 3963014
4banks busy for write cycles: 21519
5banks busy for read cycles: 1576259
5banks busy for write cycles: 5712
6banks busy for read cycles: 1178277
6banks busy for write cycles: 2199
7banks busy for read cycles: 64094
7banks busy for write cycles: 1087
8banks busy for read cycles: 1681
8banks busy for write cycles: 231

CPU 0 Branch Prediction Accuracy: 99.1323% MPKI: 3.09396 Average ROB Occupancy at Mispredict: 111.803
Branch types
NOT_BRANCH: 16085561 64.3422%
BRANCH_DIRECT_JUMP: 85874 0.343496%
BRANCH_INDIRECT: 0 0%
BRANCH_CONDITIONAL: 8744101 34.9764%
BRANCH_DIRECT_CALL: 42053 0.168212%
BRANCH_INDIRECT_CALL: 0 0%
BRANCH_RETURN: 42053 0.168212%
BRANCH_OTHER: 0 0%

DRAM PAGES: 1048576
Allocated PAGES: 48857
